 .Wgn file Subbasin: 2 STATION NAME:353827 8/4/2017 12:00:00 AM ArcSWAT 2012.10_2.19
  LATITUDE =  45.37 LONGITUDE =-119.57
  ELEV [m] = 574.50
  RAIN_YRS =  51.00
  5.61  8.70 12.40 15.96 20.60 25.31 30.07 29.54 24.72 17.91 10.21  5.73
 -3.17 -1.36  0.72  2.59  5.99  9.29 11.81 11.74  8.04  3.67  0.22 -2.81
  6.57  5.35  4.40  4.52  5.14  5.14  4.78  4.58  4.96  4.99  5.34  6.20
  5.95  4.79  3.46  3.41  3.59  3.42  3.40  3.25  3.51  3.69  4.55  5.52
  36.6  25.8  34.1  33.5  38.2  26.5   8.1  13.6  15.2  26.4  40.5  35.0
  3.99  3.10  3.66  4.71  5.60  5.26  3.83  4.59  4.53  4.74  4.25  3.35
  2.61  1.74  2.50  3.66  2.86  2.78  2.37  2.37  2.59  2.86  3.21  2.05
  0.21  0.18  0.22  0.21  0.16  0.12  0.05  0.06  0.08  0.13  0.26  0.23
  0.42  0.40  0.38  0.38  0.43  0.38  0.19  0.33  0.36  0.37  0.40  0.42
  8.37  6.56  8.18  7.48  6.64  4.90  1.96  2.66  3.30  5.26  8.98  8.65
  3.99  4.50  6.00  5.26  5.34  5.20 12.88 14.21  4.94  3.95  4.78  5.34
  4.73  8.72 13.91 20.53 24.60 26.69 28.11 23.80 18.10 10.98  5.82  4.11
 -2.06 -1.38  0.60  2.14  3.89  5.22  5.41  5.03  3.90  2.32  0.44 -2.51
  3.11  3.19  3.68  3.88  3.89  3.86  3.73  3.64  3.43  3.29  3.29  3.10
