 .Sol file Watershed HRU:152 Subbasin:10 HRU:18 Luse:RNGB Soil: 667024 Slope: 20-9999 8/4/2017 12:00:00 AM ArcSWAT 2012.10_4.19
 Soil Name: Gwin
 Soil Hydrologic Group: D
 Maximum rooting depth(mm) :  430.00
 Porosity fraction from which anions are excluded: 0.500
 Crack volume potential of soil: 0.500
 Texture 1                : STX-SIL-CBV-SICL-UWB
 Depth                [mm]:      180.00      330.00      430.00
 Bulk Density Moist [g/cc]:        1.25        1.30        0.00
 Ave. AW Incl. Rock Frag  :        0.03        0.02        0.00
 Ksat. (est.)      [mm/hr]:       32.40       10.80       27.72
 Organic Carbon [weight %]:        1.45        0.87        0.00
 Clay           [weight %]:       15.00       31.00        0.00
 Silt           [weight %]:       54.90       49.00        0.00
 Sand           [weight %]:       30.10       20.00        0.00
 Rock Fragments   [vol. %]:       53.00       53.00        0.00
 Soil Albedo (Moist)      :        0.16        0.16        0.16
 Erosion K                :        0.37        0.43        0.00
 Salinity (EC, Form 5)    :        0.00        0.00        0.00
 Soil pH                  :        7.00        7.00        0.00
 Soil CACO3               :        0.00        0.00        0.00
                              
