Daily Reservoir Outflow file:     .day file Subbasin:104 6/10/2020 12:00:00 AM ArcSWAT 2012.10_2.19
6.682775892
15.34773107
15.51763216
15.51763216
9.62772798
0.150079289
0.150079289
0.141584235
0.13875255
0.13875255
0.13875255
0.13875255
0.130257496
0.124594127
0.124594127
0.124594127
0.124594127
0.104772334
0.09061391
0.124594127
0.124594127
0.124594127
0.56633694
0.070792118
0.09061391
0.084950541
0.084950541
0.079287172
0.056633694
0.065128748
5.804953635
13.50713602
14.78139413
13.53545287
8.636638335
4.360794438
2.860001547
1.387525503
0.368119011
0.084950541
0.084950541
0.084950541
0.084950541
0.084950541
0.084950541
0.084950541
0.082118856
0.084950541
0.084950541
0.084950541
0.084950541
0.09627728
1.755644514
2.860001547
2.860001547
1.868911902
0.121762442
0.124594127
0.124594127
0.124594127
0.124594127
0.124594127
0.124594127
0.135920866
0.13875255
2.633466771
8.126935089
7.673865537
17.35822721
26.81605411
26.8726878
23.24813139
17.13169244
14.52654251
10.53386708
17.66971253
18.94397064
18.94397064
18.9156538
16.93347451
8.353469865
3.454655334
1.189307574
2.123763525
6.456241116
9.62772798
8.551687794
5.691686247
4.417428132
3.341387946
3.029902629
3.199803711
3.624556416
4.105942815
3.737823804
3.709506957
3.39802164
3.567922722
3.879408039
4.332477591
4.360794438
4.304160744
4.445744979
5.125349307
7.532281302
7.532281302
7.815449772
7.957034007
13.59208656
14.92297837
14.95129522
14.80971098
18.97228749
21.57743741
19.14218857
11.8081252
15.17782999
9.797629062
7.532281302
8.410103559
10.02416384
9.514460592
5.861587329
4.162576509
5.720003094
5.295250389
4.700596602
3.199803711
3.199803711
2.916635241
2.576833077
1.727327667
1.98217929
1.783961361
1.840595055
1.642377126
1.444159197
0.736238022
0.203881298
0.195386244
0.195386244
0.195386244
0.198217929
0.764554869
0.962772798
1.472476044
1.557426585
1.783961361
1.557426585
1.217624421
0.877822257
0.311485317
0.18689119
1.557426585
1.529109738
0.178396136
0.178396136
1.330891809
2.916635241
3.851091192
4.983765072
6.088122105
6.003171564
5.635052553
5.493468318
5.550102012
5.889904176
6.79604328
7.334063373
7.419013914
7.787132925
8.070301395
8.240202477
11.75149151
12.74258115
11.3267388
7.900400313
7.815449772
7.532281302
4.502378673
3.822774345
3.709506957
3.313071099
3.11485317
3.652873263
3.879408039
3.822774345
4.332477591
5.153666154
5.493468318
5.266933542
4.672279755
4.275843897
3.567922722
3.199803711
3.369704793
3.454655334
4.219210203
4.81386399
4.757230296
4.615646061
4.559012367
5.465151471
6.059805258
6.173072646
6.286340034
6.258023187
6.258023187
5.918221023
6.22970634
5.720003094
4.643962908
4.332477591
4.445744979
4.870497684
5.181983001
5.323567236
5.6633694
5.804953635
5.804953635
5.776636788
5.889904176
6.484557963
6.767726433
6.371290575
6.031488411
6.22970634
6.342973728
6.484557963
6.852676974
6.965944362
6.824360127
6.654459045
6.597825351
6.541191657
6.116438952
5.181983001
4.672279755
4.389111285
4.24752705
4.134259662
4.020992274
4.105942815
4.389111285
4.332477591
4.049309121
3.624556416
2.916635241
2.661783618
2.520199383
2.803367853
2.916635241
3.11485317
3.426338487
3.284754252
2.888318394
2.661783618
4.389111285
5.068715613
5.012081919
4.785547143
4.757230296
4.502378673
4.559012367
4.559012367
4.134259662
3.907724886
3.822774345
3.766140651
3.766140651
3.766140651
3.766140651
3.907724886
5.125349307
5.408517777
5.238616695
5.238616695
5.210299848
4.927131378
4.559012367
4.360794438
4.190893356
4.190893356
4.162576509
4.134259662
4.105942815
4.105942815
4.105942815
4.077625968
4.077625968
4.049309121
4.077625968
4.162576509
4.134259662
4.105942815
4.105942815
4.105942815
4.105942815
4.077625968
4.134259662
4.162576509
4.134259662
4.134259662
4.162576509
4.162576509
4.162576509
2.123763525
0.005097032
0.006796043
0.008211886
0.009627728
0.009061391
0.006512875
0.005097032
0.007928717
0.008211886
0.008211886
0.008211886
0.011893076
0.013875255
0.013875255
0.015291097
0.008778223
0.006229706
0.009627728
0.009061391
0.001699011
0.003398022
0.005097032
0.003114853
0.005097032
0.005946538
0.004813864
0.004813864
0.004813864
0.012176244
0.005097032
0.004530696
0.001982179
0
0
0.002265348
0.002831685
0.003114853
0.002548516
0.001415842
0.000283168
0
0.003114853
0.002265348
0.000283168
0
0
0
0
0
0.000283168
0.001415842
0.001699011
0.002548516
0.002265348
0.003398022
0.004813864
0.004813864
0.004813864
0.003964359
0.002548516
0.002548516
0.003114853
0.002831685
0.001699011
0.002548516
0.002548516
0.002548516
0.002548516
0.003964359
0.004813864
0.004530696
0.004530696
0.004813864
0.004813864
0.004530696
0.004247527
0.005097032
0.007645549
0.008495054
0.00934456
0.009910896
0.008211886
0.007928717
0.009627728
0.013308918
0.013875255
0.013592087
0.013875255
0.013875255
0.013308918
0.013875255
0.013875255
0.013875255
0.013875255
0.012176244
0.013592087
0.013308918
0.013875255
0.010760402
0.013592087
0.009910896
0.01302575
0.011893076
0.013308918
0.01302575
0.013308918
0.013875255
0.012742581
0.013308918
0.011609907
0.013875255
0.013875255
0.013875255
0.013875255
0.013875255
0.013875255
0.022936646
0.022936646
0.025768331
0.021237635
0.022936646
0.026901005
0.036811901
0.036811901
0.036811901
0.036811901
0.036811901
0.042475271
0.056633694
0.056633694
0.056633694
0.076455487
0.067960433
0.056633694
0.056633694
0.056633694
0.076455487
0.084950541
0.084950541
0.084950541
0.093445595
0.079287172
0.056633694
0.076455487
0.084950541
0.084950541
0.107604019
0.124594127
0.124594127
0.135920866
0.14441592
0.147247604
0.147247604
0.141584235
0.13875255
0.13875255
0.147247604
0.150079289
0.150079289
0.150079289
0.150079289
0.152910974
0.150079289
0.150079289
0.150079289
0.155742659
0.164237713
0.164237713
0.164237713
0.164237713
0.164237713
0.150079289
0.152910974
0.164237713
0.164237713
0.164237713
0.164237713
0.164237713
0.164237713
0.155742659
0.164237713
0.167069397
0.164237713
0.147247604
0.133089181
0.237861515
0.28316847
0.223703091
1.076040186
1.840595055
1.359208656
0.13875255
0.130257496
0.133089181
0.141584235
0.13875255
0.141584235
0.150079289
0.150079289
0.339802164
5.861587329
6.824360127
10.22238177
13.2522844
17.16000928
17.24495982
12.96911593
4.219210203
5.6633694
6.824360127
5.266933542
3.369704793
1.614060279
1.840595055
2.690100465
2.520199383
2.576833077
2.520199383
2.633466771
3.454655334
4.587329214
5.295250389
6.173072646
6.682775892
6.342973728
6.144755799
6.965944362
8.041984548
8.4950541
8.721588876
9.457826898
10.16574807
10.16574807
9.939213297
9.004757346
7.107528597
7.730499231
7.787132925
6.880993821
6.427924269
6.22970634
5.833270482
5.861587329
5.6633694
5.351884083
5.181983001
5.465151471
5.266933542
4.785547143
4.275843897
4.020992274
4.24752705
4.842180837
5.012081919
5.09703246
5.578418859
6.342973728
6.371290575
6.22970634
6.427924269
5.804953635
5.578418859
5.408517777
5.210299848
5.465151471
5.889904176
6.088122105
5.889904176
5.804953635
5.94653787
5.776636788
5.521785165
5.408517777
5.153666154
5.040398766
5.436834624
5.521785165
5.408517777
5.323567236
5.578418859
5.635052553
5.436834624
5.408517777
5.465151471
5.578418859
5.578418859
5.040398766
4.672279755
4.728913449
4.81386399
4.983765072
4.983765072
5.125349307
5.266933542
5.606735706
5.606735706
5.295250389
5.238616695
5.181983001
5.181983001
5.153666154
5.09703246
5.068715613
5.436834624
5.436834624
4.955448225
4.502378673
4.559012367
4.105942815
3.341387946
2.888318394
5.238616695
6.484557963
6.79604328
6.909310668
6.852676974
6.79604328
6.994261209
7.135845444
6.824360127
6.739409586
5.465151471
3.96435858
3.96435858
3.96435858
3.96435858
3.936041733
4.020992274
4.389111285
4.360794438
4.332477591
6.224609308
6.918372059
6.450860915
6.434720312
5.865834856
4.991693789
4.962244268
4.952050203
4.973287839
5.019161131
4.98603042
4.960828426
4.952050203
4.91750365
4.967058132
4.96932348
4.949784856
4.939590791
4.967907638
5.881975459
6.336460853
6.331363821
6.355149972
6.376670776
6.397908411
6.378369787
6.39252821
5.561995088
5.105810683
4.381182568
3.982481362
3.2295364
2.843011439
2.843011439
2.843011439
2.843011439
2.87614215
2.867930264
2.843011439
2.360775534
1.468228517
1.459450294
1.448973061
1.430000774
1.428018594
1.427452257
1.427452257
1.427452257
1.427452257
0.863380665
0.004813864
0.00368119
0.004813864
0.002265348
0.001415842
0.000566337
0.000566337
0.001132674
0.003964359
0.003398022
0.002831685
0.002265348
0.002265348
0.002548516
0.002548516
0.003114853
0.002548516
0.001699011
0.002548516
0.002548516
0.003114853
0.003114853
0.002548516
0.001415842
0.003114853
0.004530696
0.005380201
0.005663369
0.004813864
0.004813864
0.004813864
0.006512875
0.01104357
0.015291097
0.010194065
0.008211886
0.007928717
0.008211886
0.007928717
0.008211886
0.008211886
0.008495054
0.009061391
0.013875255
0.013875255
0.013875255
0.013875255
0.016140603
0.013875255
0.013875255
0.016140603
0.022653478
0.022936646
0.022936646
0.022936646
0.020104961
0.022936646
0.022653478
0.020104961
0.022936646
0.022936646
0.022936646
0.036245564
0.035679227
0.035962396
0.036245564
0.044174281
0.056067357
0.055784189
0.044174281
0.037661407
0.033130711
0.036245564
0.036245564
0.035962396
0.041625765
0.044740618
0.045590124
0.03511289
0.045590124
0.043607944
0.055217852
0.054651515
0.051253493
0.053802009
0.058332705
0.080986182
0.071075286
0.038510912
0.03879408
0.036528733
0.039360417
0.040493091
0.038510912
0.033413879
0.036245564
0.035679227
0.045590124
0.056067357
0.050120819
0.056350526
0.059748547
0.073623802
0.063712906
0.078437666
0.084950541
0.090330742
0.125443632
0.123744621
0.125726801
0.129691159
0.139318887
0.14809711
0.129124822
0.123744621
0.125726801
0.126859475
0.137336708
0.138186213
0.130257496
0.125443632
0.125443632
0.125160464
0.135920866
0.143849583
0.149229784
0.151211963
0.152061468
2.249490326
4.831703604
5.09703246
4.356546911
3.963225906
2.786377745
2.786377745
2.786377745
2.793456957
3.059918487
3.84967535
5.784565505
7.431190158
5.083157205
5.449010868
6.583666928
7.097334532
7.088273141
7.085724625
7.087706804
7.08657413
8.102299432
9.79253203
8.4636224
5.634769385
4.54173909
5.098731471
5.098448302
4.838216478
3.502510805
3.206599754
2.458185488
2.458185488
1.833232675
1.531375086
2.871045117
4.836800636
5.095616618
5.097315628
4.089519044
5.099864145
5.100430482
5.099580976
4.663218364
3.567073217
3.567073217
3.346484978
2.10054371
2.10054371
2.215793278
2.606282598
3.969738781
3.642679198
2.459884499
2.459318162
1.829268316
1.387242335
1.508721608
1.681454375
1.39913541
1.231499676
1.231499676
0.882919289
0.310352643
0.220871407
0.151211963
0.151211963
0.151211963
0.714717218
0.809295487
0.791455874
2.128860557
3.440780079
3.610397993
4.627539137
5.911708148
6.357698488
6.502963914
6.961413666
7.069300854
6.949520591
7.215982121
7.662821967
8.022162755
8.113059834
8.101166758
8.098051905
8.088141009
7.932681519
6.707411549
5.660820884
6.180435026
7.486691178
8.257192585
8.313259942
8.515725398
8.710828474
8.668636372
8.902816697
8.951804842
9.097919773
9.66850424
9.592048753
9.063373219
8.809937439
8.431907531
7.7361626
6.960564161
6.602922383
6.23338753
5.257305814
4.77676892
4.78979467
5.351600915
5.789096201
5.642698102
5.404553418
5.609284222
5.837234841
5.437967298
5.310541486
5.299497916
5.488654454
5.663652568
5.80580314
5.838933851
5.872064562
5.90208042
5.988446804
5.591444609
5.55604855
5.355565273
4.726648101
4.813580822
4.877010559
5.252775119
5.704711997
5.818545722
5.814015026
5.56709212
5.092501764
4.9933928
5.221626587
5.304878117
5.368591023
5.549252507
5.714056556
5.791927885
5.971173527
5.714622893
5.491486139
5.277693944
5.149135458
5.088537406
5.291852367
5.423242537
4.752133264
4.387978611
4.392509307
4.604885659
4.453107359
4.303594407
4.290002321
4.37523603
4.542022259
4.53069552
4.28632113
3.327229523
3.319300805
3.463716725
3.76076045
3.759910945
3.755946586
3.443045427
3.259552258
3.256437405
3.2555879
3.2555879
3.2555879
3.243977992
3.222740357
3.501944468
3.630502954
3.627104932
3.60898215
3.61266334
3.43313453
4.246960713
4.705693634
4.679925304
4.660669848
4.657271826
4.649343109
4.653590636
4.664067869
4.654156973
4.642830234
4.610832197
4.405535056
4.293683511
4.270180528
4.303311239
4.306142923
4.298497375
4.251774577
4.2345013
4.232519121
4.233934963
4.249226061
4.237616154
4.231669616
4.231669616
4.218360698
4.235917143
4.240731007
4.231669616
4.224307235
4.192875535
4.220909214
4.217511192
4.231669616
4.231669616
4.229970605
4.226006246
4.231669616
4.22713892
4.197972568
4.227705257
4.22345773
4.23082011
4.25488943
4.232235953
4.231669616
4.220626045
4.209865643
4.230253773
3.341387946
2.885769878
2.84471045
1.897228749
1.387242335
0.497243833
0.011326739
0.008211886
0.008211886
0.008211886
0.01472476
0.016423771
0.017556445
0.01302575
0.00934456
0.009061391
0.008211886
0.00736238
0.008211886
0.007645549
0.003114853
0.007079212
0.007928717
0.006229706
0.004813864
0.004813864
0.008211886
0.011326739
0.010477233
0.00368119
0.005663369
0.00934456
0.01104357
0.013875255
0.013875255
0.013875255
0.013875255
0.014441592
0.019538624
0.022936646
0.022936646
0.033980216
0.02775051
0.020671298
0.016423771
0.020671298
0.020671298
0.021520804
0.022936646
0.028316847
0.031148532
0.020104961
0.017556445
0.020954467
0.016140603
0.010760402
0.018689119
0.024352488
0.017273277
0.031148532
0.036811901
0.036811901
0.036811901
0.028316847
0.039643586
0.050970325
0.028316847
0.04813864
0.053802009
0.056633694
0.053802009
0.022936646
0.023219815
0.031148532
0.011326739
0.017273277
0.022936646
0.02775051
0.036811901
0.036811901
0.036811901
0.022936646
0.036811901
0.056633694
0.056633694
0.056633694
0.053802009
0.056633694
0.036811901
0.050970325
0.056633694
0.059465379
0.084950541
0.084950541
0.084950541
0.062297063
0.056633694
0.056633694
0.065128748
0.087782226
0.076455487
0.056633694
0.059465379
0.084950541
0.084950541
0.067960433
0.053802009
0.056633694
0.056633694
0.059465379
0.084950541
0.084950541
0.082118856
0.082118856
0.084950541
0.099108965
0.124594127
0.124594127
0.127425812
0.124594127
0.13875255
0.13875255
0.150079289
0.150079289
0.161406028
0.164237713
0.164237713
0.164237713
0.164237713
0.164237713
5.210299848
8.580004641
8.041984548
7.334063373
7.305746526
7.305746526
10.19406492
13.84693818
13.7336708
8.466737253
7.277429679
7.249112832
7.249112832
7.277429679
7.249112832
6.79604328
6.626142198
7.277429679
6.852676974
4.870497684
3.511289028
3.058219476
3.058219476
3.058219476
2.54851623
2.208714066
2.208714066
2.208714066
1.670693973
1.359208656
0.906139104
0.679604328
0.679604328
0.679604328
0.679604328
1.302574962
1.755644514
2.095446678
1.670693973
1.160990727
1.160990727
0.764554869
0.991089645
1.670693973
1.359208656
1.160990727
1.302574962
1.953862443
1.98217929
1.953862443
1.614060279
1.217624421
1.13267388
1.13267388
1.13267388
0.84950541
1.160990727
1.98217929
2.491882536
3.001585782
3.596239569
4.105942815
4.700596602
5.210299848
2.491882536
0.158574343
0.150079289
0.150079289
0.150079289
0.150079289
0.150079289
1.019406492
0.991089645
0.150079289
0.150079289
0.792871716
0.934455951
0.150079289
0.821188563
2.010496137
1.160990727
0.821188563
0.821188563
1.642377126
2.463565689
3.313071099
5.068715613
5.804953635
5.94653787
6.342973728
6.711092739
6.880993821
6.909310668
7.36238022
7.532281302
7.617231843
7.985350854
7.957034007
7.92871716
7.503964455
6.711092739
6.003171564
5.295250389
4.870497684
4.955448225
5.238616695
5.521785165
5.861587329
6.371290575
6.626142198
7.164162291
7.334063373
7.447330761
7.475647608
7.36238022
6.937627515
6.767726433
6.909310668
6.994261209
7.07921175
7.107528597
7.192479138
7.249112832
7.220795985
7.36238022
7.050894903
6.852676974
6.767726433
6.79604328
7.022578056
7.220795985
7.503964455
7.673865537
7.787132925
7.900400313
8.155251936
8.126935089
7.92871716
7.900400313
7.64554869
7.617231843
7.617231843
7.022578056
6.739409586
6.541191657
6.201389493
6.456241116
6.597825351
6.286340034
6.597825351
6.739409586
6.286340034
6.342973728
6.541191657
6.258023187
6.456241116
6.51287481
6.059805258
5.38020093
5.153666154
5.012081919
5.068715613
5.38020093
5.550102012
5.323567236
5.266933542
4.81386399
3.96435858
3.567922722
3.567922722
3.567922722
3.567922722
3.567922722
3.567922722
3.652873263
3.709506957
3.68119011
3.709506957
3.624556416
3.567922722
3.567922722
3.567922722
3.567922722
3.539605875
3.567922722
3.567922722
3.709506957
3.652873263
3.992675427
4.24752705
4.24752705
4.24752705
4.219210203
4.219210203
4.219210203
4.219210203
4.24752705
4.219210203
4.219210203
4.219210203
4.24752705
4.24752705
4.24752705
4.24752705
4.219210203
4.219210203
4.219210203
4.219210203
4.162576509
4.190893356
4.219210203
4.219210203
4.219210203
4.190893356
4.219210203
4.24752705
4.24752705
4.219210203
4.231669616
4.226006246
4.228837931
4.219210203
4.219210203
4.219210203
4.219210203
4.219210203
4.219210203
4.219210203
4.219210203
4.219210203
4.219210203
3.313071099
1.840595055
0.906139104
0.396435858
0.23502983
0.23502983
0.23502983
0.23502983
0.23502983
0.232198145
0.23502983
0.23502983
0.232198145
0.232198145
0.23502983
0.23502983
0.23502983
0.23502983
0.23502983
0.23502983
0.23502983
0.23502983
0.243524884
0.249188254
0.249188254
0.249188254
0.249188254
0.260514992
0.246356569
0.237861515
0.23502983
0.23502983
0.232198145
0.215208037
0.220871407
0.220871407
0.243524884
0.246356569
0.23502983
0.23502983
0.23502983
0.226534776
0.215208037
0.215208037
0.215208037
0.215208037
0.215208037
0.215208037
0.223703091
0.232198145
0.232198145
0.23502983
0.280336785
0.311485317
0.315732844
0.28316847
0.28316847
0.28316847
0.28316847
0.28316847
0.28316847
0.28316847
0.28316847
0.28316847
0.28316847
0.28316847
0.28316847
0.28316847
0.28316847
0.28316847
0.28316847
0.28316847
0.28316847
0.28316847
0.28316847
0.28316847
0.274673416
0.28316847
0.28316847
0.28316847
0.28316847
0.28316847
0.28316847
0.28316847
0.28316847
0.28316847
0.28316847
0.28316847
0.266178362
0.266744699
0.277505101
0.28316847
0.28316847
0.28316847
0.28316847
0.28316847
0.28316847
0.28316847
0.28316847
0.286000155
0.28316847
0.28316847
0.28316847
0.28316847
0.28316847
0.28316847
0.28316847
0.28316847
0.280336785
0.266178362
0.266178362
0.274673416
0.28316847
0.28316847
0.28316847
0.28316847
0.28316847
0.28316847
0.28316847
0.28316847
0.28316847
0.311485317
0.28316847
0.28316847
0.28316847
0.28316847
0.28316847
0.28316847
0.280336785
0.28316847
0.28316847
0.311485317
0.28316847
0.28316847
0.28316847
0.28316847
0.28316847
0.28316847
0.28316847
0.28316847
0.28316847
0.28316847
0.311485317
0.28316847
0.28316847
0.28316847
0.28316847
0.28316847
0.28316847
0.28316847
0.28316847
0.28316847
0.28316847
0.28316847
0.28316847
0.311485317
0.28316847
0.934455951
1.274258115
1.274258115
1.925545596
4.105942815
5.6633694
4.81386399
4.53069552
5.012081919
4.842180837
5.068715613
8.296836171
6.937627515
6.173072646
4.983765072
4.474061826
4.134259662
3.284754252
2.718417312
2.180397219
2.152080372
2.038812984
1.755644514
1.387525503
1.472476044
1.897228749
1.69901082
1.387525503
1.245941268
1.047723339
0.877822257
1.019406492
2.435248842
2.435248842
3.029902629
4.077625968
4.643962908
5.153666154
5.606735706
6.201389493
6.626142198
7.277429679
7.872083466
8.268519324
7.673865537
7.050894903
6.711092739
6.682775892
6.880993821
7.447330761
7.419013914
7.107528597
6.994261209
6.965944362
6.173072646
5.776636788
5.833270482
6.51287481
7.135845444
7.447330761
7.64554869
8.466737253
9.004757346
9.259608969
9.34455951
9.146341581
8.77822257
8.098618242
7.503964455
6.342973728
6.173072646
6.654459045
7.390697067
8.410103559
9.146341581
9.146341581
8.268519324
6.880993821
5.635052553
4.502378673
3.539605875
3.766140651
3.96435858
3.936041733
3.624556416
3.539605875
3.851091192
4.049309121
4.219210203
4.219210203
4.389111285
4.332477591
3.851091192
3.369704793
3.624556416
4.190893356
4.332477591
4.360794438
4.219210203
4.219210203
4.417428132
4.445744979
4.360794438
4.332477591
4.360794438
4.559012367
4.81386399
4.983765072
4.81386399
4.785547143
5.09703246
4.898814531
4.615646061
4.389111285
4.304160744
4.559012367
4.587329214
4.445744979
4.360794438
4.304160744
4.162576509
3.822774345
3.709506957
3.879408039
3.68119011
3.313071099
3.199803711
3.199803711
3.11485317
2.888318394
3.058219476
3.511289028
4.049309121
4.049309121
3.879408039
3.822774345
3.567922722
3.482972181
3.39802164
3.511289028
3.709506957
3.709506957
3.68119011
3.567922722
3.567922722
3.39802164
3.256437405
3.228120558
2.803367853
2.803367853
2.803367853
2.803367853
2.8316847
2.860001547
2.860001547
2.860001547
2.860001547
2.8316847
3.086536323
3.256437405
3.256437405
3.256437405
3.256437405
3.001585782
3.768405999
4.2345013
4.247810218
4.242146849
4.239881501
4.23082011
4.21609535
4.359661764
4.653024299
4.531545025
4.242146849
4.231952784
4.21609535
4.254606262
4.30670926
4.300196385
4.304160744
4.26791518
4.254039925
4.262534979
4.231952784
4.230536942
4.230536942
4.230536942
4.24752705
4.242146849
4.230536942
4.230536942
4.230536942
4.230536942
4.229970605
4.230536942
4.254039925
4.274428055
4.231386447
4.230536942
4.21609535
4.12916263
4.147851749
4.230536942
4.230536942
4.21609535
4.262818147
4.264800327
4.229687436
4.227705257
4.230536942
3.851091192
3.029336292
2.151797204
1.274258115
0.588990418
0.333855626
0.301857589
0.271275394
0.274107079
0.28316847
0.284867481
0.277788269
0.282885302
0.281469459
0.278637774
0.284867481
0.278071438
0.289115008
0.291946693
0.28316847
0.28316847
0.283451638
0.282318965
0.28316847
0.283451638
0.284017975
0.282885302
0.293645703
0.308936801
0.306105116
0.290814019
0.274673416
0.28316847
0.28316847
0.28316847
0.28316847
0.28316847
0.282318965
0.28316847
0.28316847
0.28316847
0.28316847
0.28316847
0.28316847
0.28316847
0.28316847
0.28316847
0.28316847
0.29421204
0.311485317
0.307520958
0.297610062
0.293362535
0.282318965
0.28316847
0.28316847
0.282318965
0.28316847
0.28316847
0.28316847
0.28316847
0.28316847
0.28316847
0.28316847
0.28316847
0.28316847
0.28316847
0.28316847
0.286566492
0.288265502
0.284301144
0.283451638
0.28316847
0.283451638
0.28316847
0.28316847
0.284867481
0.278071438
0.276089258
0.282885302
0.28316847
0.280619954
0.281186291
0.279204111
0.282885302
0.282602133
0.282035796
0.28316847
0.28316847
0.282035796
0.28316847
0.28316847
0.282318965
0.281469459
0.281469459
0.282035796
0.282035796
0.28316847
0.28316847
0.28316847
0.28316847
0.28316847
0.282035796
0.28316847
0.28316847
0.28316847
0.282318965
0.28316847
0.282318965
0.306105116
0.292796198
0.28316847
0.280053617
0.282602133
0.281186291
0.28316847
0.28316847
0.28316847
0.28316847
0.282885302
0.28316847
0.28316847
0.28316847
0.297043725
0.29251303
0.28316847
0.28316847
0.281469459
0.28316847
0.296477388
0.308936801
0.291380356
0.28316847
0.28316847
0.282318965
0.283734807
0.28316847
0.28316847
0.282318965
0.282318965
0.28316847
0.28316847
0.285150649
0.284017975
0.283451638
0.288831839
0.285433818
0.280619954
0.282885302
0.28316847
0.28316847
0.28316847
0.28316847
0.28316847
0.28316847
0.28316847
0.28316847
0.282318965
0.28316847
0.28316847
0.285433818
0.308087295
0.306671453
0.295061546
0.282885302
0.282885302
0.280336785
0.282885302
0.282035796
0.282035796
0.282885302
0.282318965
0.282885302
0.28316847
0.282885302
0.282885302
0.28316847
0.282602133
0.282318965
0.281752628
0.272691237
0.282035796
0.28316847
0.282318965
0.282602133
0.276372427
0.270425889
0.276938764
0.28316847
0.28316847
0.28316847
0.282885302
0.28316847
0.28316847
0.28316847
0.278354606
0.28316847
0.280903122
0.27948728
0.536321082
1.903741624
3.166956168
4.049309121
4.638582707
4.162576509
2.977233294
2.742486632
4.159178487
5.266933542
6.136827082
6.474647067
6.639734285
6.451993589
5.323567236
3.820225829
4.389111285
5.174903789
6.004870575
6.774239308
7.570509045
7.937212214
8.305614394
8.527052137
8.645982895
8.009420174
7.362946557
7.164728628
6.972457237
6.792078921
6.373839091
5.929264593
5.226157282
4.328513232
3.561409847
3.264932459
3.262100774
3.546968255
3.907724886
4.291134994
4.357113248
4.512006401
4.677943124
4.820660033
4.837083805
5.181416664
5.797024918
5.788246695
5.769557576
5.75964668
5.668466432
5.33206229
4.872479863
4.643962908
4.843030342
5.099864145
5.092784933
5.040398766
5.038982924
5.721135768
5.845163558
5.493468318
5.436834624
4.67143025
4.07167943
4.287736973
4.672279755
5.02114331
5.014913604
4.837366973
4.303877576
4.414313279
4.643962908
5.013497761
4.775636247
4.635184685
4.796307545
4.610832197
4.512572738
3.470795937
2.957411501
3.199237374
3.078607606
2.776750017
2.627237065
2.272426972
2.30980521
2.30980521
2.299894313
2.314335905
2.35426266
2.357094344
2.361341871
2.361341871
2.263365581
2.207581392
2.208430898
2.208430898
2.208430898
2.208430898
2.207581392
2.350298301
2.50773997
2.398720109
2.220323973
2.271294298
2.520199383
2.347466616
2.718417312
2.938722382
2.922015442
2.910122366
2.916635241
2.907290681
2.906724345
2.906724345
2.906724345
2.916635241
2.879540171
2.84272827
2.820357961
2.822056972
3.030185797
3.140055164
3.140055164
3.140055164
3.143170017
3.110039306
3.132692784
3.135807637
3.140055164
3.140055164
3.140055164
3.118817529
3.107207621
3.136090805
3.125330403
3.140055164
3.139488827
3.137789816
3.140055164
3.140055164
3.132692784
3.143170017
3.140055164
3.135524468
3.123914561
3.110888811
3.082571964
3.121366045
3.109189801
3.086536323
3.080872954
3.120799708
3.129294762
3.143170017
3.089368008
3.086536323
3.081439291
3.080872954
3.078324437
3.103526431
3.13892249
3.140055164
3.140055164
3.107207621
3.080872954
3.075775921
3.080872954
2.664615303
1.934890156
1.206864019
0.453069552
0.178396136
0.184059506
0.220871407
0.23502983
0.23502983
0.23502983
0.23502983
0.311485317
0.311485317
0.311485317
0.311485317
0.311485317
0.311485317
0.311485317
0.311485317
0.311485317
0.311485317
0.311485317
0.3035566
0.306954621
0.301857589
0.298459567
0.294495209
0.311485317
0.311485317
0.305538779
0.30723779
0.310352643
0.310352643
0.310352643
0.311485317
0.301008084
0.303273431
0.305255611
0.311485317
0.311485317
0.304689274
0.30723779
0.309219969
0.301574421
0.31091898
0.311485317
0.311485317
0.310352643
0.310352643
0.311485317
0.320546708
0.326493246
0.311485317
0.311485317
0.311485317
0.311485317
0.311485317
0.293362535
0.282885302
0.28316847
0.282885302
0.28316847
0.282318965
0.282602133
0.282602133
0.282318965
0.282602133
0.280336785
0.28316847
0.303273431
0.291380356
0.275239753
0.295061546
0.311485317
0.310352643
0.313184328
0.283451638
0.26844371
0.282318965
0.28316847
0.28316847
0.28316847
0.282318965
0.28316847
0.28316847
0.289964513
0.303273431
0.311485317
0.311485317
0.311485317
0.289964513
0.282318965
0.282885302
0.284867481
0.291946693
0.310069475
0.280053617
0.266744699
0.266744699
0.266744699
0.265045688
0.27580609
0.277788269
0.28316847
0.282318965
0.282885302
0.28316847
0.28316847
0.295344714
0.306671453
0.290814019
0.28316847
0.28316847
0.281186291
0.274673416
0.277788269
0.28316847
0.282318965
0.283734807
0.288831839
0.28316847
0.28316847
0.284584312
0.287415997
0.281752628
0.275239753
0.280619954
0.273257574
0.266744699
0.265612025
0.266744699
0.273257574
0.279204111
0.280336785
0.27948728
2.032866446
2.849524314
4.568640095
8.608321488
12.11961052
12.79921484
10.67545132
9.033074193
8.21188563
7.249112832
5.493468318
3.369704793
3.709506957
4.275843897
4.672279755
4.24752705
3.879408039
3.596239569
3.511289028
3.001585782
3.171486864
4.445744979
4.445744979
4.445744979
5.351884083
5.94653787
4.898814531
4.24752705
3.709506957
4.020992274
4.417428132
4.24752705
4.020992274
3.709506957
3.454655334
3.511289028
2.944952088
2.350298301
3.001585782
4.077625968
3.482972181
3.143170017
2.71700147
2.510571655
2.227403185
1.893830727
1.696462304
1.561674112
1.561674112
1.198368965
1.024503524
2.095729846
1.794721763
1.6749415
1.330891809