Daily Reservoir Outflow file:     .day file Subbasin:122 6/10/2020 12:00:00 AM ArcSWAT 2012.10_2.19
0
0
0
0
0
0
0
0
0
0
0
0
0
0
0
0
0
0
0
0
0
0
0
0
0
0
0
0
0
0
0
0
0
0
0
0
0
0
0
0
0
0
0
0
0
0
0
0
0
0
0
0
0
0
0
0
0
0
0
0
0
0
0
0
0
0
0
0
0
0
0
0
0
0
0
0
0
0
0
0
0
0
0
0
0
0
0
0
0
0
0
0
0
0
0
0
0
0
0
0
0
0
0
0
1.16
1.61
1.98
2.32
2.52
2.49
2.75
2.89
2.89
2.89
2.89
3.03
3.28
3.26
3.26
3.23
3.23
3.23
3.23
3.23
3.23
3.23
3.23
3.45
3.85
3.99
3.96
3.99
3.96
3.96
3.96
4.16
4.36
4.36
4.59
4.7
4.45
4.28
4.28
4.28
4.25
4.25
4.39
4.47
4.45
4.33
4.08
3.71
3.71
3.88
3.4
2.94
3
3.45
3.74
4.02
4.33
4.3
4.16
4.13
3.96
3.79
4.08
4.19
4.22
4.19
4.19
4.36
4.39
4.11
4.11
4.11
4.3
4.62
4.62
4.62
4.62
4.56
4.56
4.56
4.53
4.5
4.5
4.47
4.47
4.47
4.45
4.45
4.42
4.42
4.42
4.79
5.01
5.01
5.24
5.21
5.18
5.01
4.81
4.7
4.62
4.59
4.56
4.47
4.36
4.56
4.67
4.45
4.22
4.16
4.13
4.11
4.22
4.53
4.64
4.59
4.53
4.5
4.47
4.45
4.39
4.36
4.3
4.28
4.22
4.28
4.45
4.5
4.42
4.39
4.33
4.36
4.19
3.91
3.85
3.79
3.74
3.57
3.45
3.43
3.62
3.51
3.31
3.26
3.2
3.03
2.92
2.89
2.86
2.97
3.03
3
2.94
2.89
2.83
2.8
2.66
2.46
2.41
2.38
2.35
2.32
2.44
2.46
2.44
2.38
2.32
2.29
2.29
0.82
0
0
0
0
0
0
0
0
0
0
0
0
0
0
0
0
0
0
0
0
0
0
0
0
0
0
0
0
0
0
0
0
0
0
0
0
0
0
0
0
0
0
0
0
0
0
0
0
0
0
0
0
0
0
0
0
0
0
0
0
0
0
0
0
0
0
0
0
0
0
0
0
0
0
0
0
0
0
0
0
0
0
0
0
0
0
0
0
0
0
0
0
0
0
0
0
0
0
0
0
0
0
0
0
0
0
0
0
0
0
0
0
0
0
0
0
0
0
0
0
0
0
0
0
0
0
0
0
0
0
0
0
0
0
0
0
0
0
0
0
0
0
0
0
0
0
0
0
0
0
0
0
0
0
0
0
0
0
0
0
0
0
0
0
0
0
0
0
0
0
0
0
0
0
0
0
0
0
0
0
0
0
0
0
0
0
0
0
0
0
0
0
0
0.79
1.3
2.1
2.52
2.8
2.78
2.75
3.11
3.43
3.4
3.6
3.71
3.34
3.14
3.28
3.48
3.96
4.36
4.33
4.16
3.85
3.82
3.82
3.82
3.82
3.77
3.74
3.71
3.85
3.99
3.94
3.94
3.91
3.91
3.91
3.91
3.77
3.37
2.89
2.66
2.66
2.66
2.92
3.06
3.06
3.06
3.06
3.06
3.06
3.28
3.45
3.45
3.48
3.48
3.74
3.88
3.85
3.85
3.85
3.82
3.82
4.02
4.13
4.13
4.11
4.11
4.08
4.05
4.02
4.28
4.59
4.87
4.79
4.7
4.67
4.64
4.62
4.59
4.56
4.53
4.53
4.47
4.45
4.42
4.36
4.33
4.33
4.39
4.36
4.33
4.3
4.39
4.56
4.53
4.5
4.64
4.73
4.64
4.62
4.56
4.5
4.42
4.39
4.45
4.47
4.45
4.56
4.64
4.62
4.53
4.28
4.19
4.16
4.25
4.3
4.47
4.56
4.56
4.64
4.73
4.73
4.73
4.64
4.56
4.53
4.67
4.7
4.64
4.64
4.64
4.64
4.87
4.96
4.81
4.7
4.62
4.47
4.36
4.33
4.3
4.28
4.19
4.02
3.96
4.05
4.05
3.99
3.94
3.88
3.79
3.6
3.43
3.34
3.26
3.37
3.77
4.08
4.36
4.36
4.28
4.05
1.27
0
0
0
0
0
0
0
0
0
0
0
0
0
0
0
0
0
0
0
0
0
0
0
0
0
0
0
0
0
0
0
0
0
0
0
0
0
0
0
0
0
0
0
0
0
0
0
0
0
0
0
0
0
0
0
0
0
0
0
0
0
0
0
0
0
0
0
0
0
0
0
0
0
0
0
0
0
0
0
0
0
0
0
0
0
0
0
0
0
0
0
0
0
0
0
0
0
0
0
0
0
0
0
0
0
0
0
0
0
0
0
0
0
0
0
0
0
0
0
0
0
0
0
0
0
0
0
0
0
0
0
0
0
0
0
0
0
0
0
0
0
0
0
0
0
0
0
0
0
0
0
0
0
0
0
0
0
0
0
0
0
0
0
0
0
0
0
0
0
0
0
0
0
0
0
0
0
0
0
0
0
0
0
0
0
0
0
0
0
0
0
0
0
0
0
0
1.08
1.5
1.5
1.61
2.07
2.52
2.78
2.97
2.94
2.92
3.26
3.51
3.45
3.45
3.43
3.43
3.45
3.45
3.45
3.45
3.62
3.88
3.88
3.91
3.88
3.88
3.91
3.91
3.82
3.77
3.68
3.43
3.43
3.43
3.45
3.43
3.26
3.11
3.11
3.11
3.11
3.11
3.09
3.26
3.45
3.45
3.48
3.45
3.57
3.68
3.74
3.79
3.79
3.79
3.77
3.77
3.77
3.77
3.77
3.74
3.74
3.74
3.74
3.71
3.71
3.82
4.25
4.25
4.22
4.42
4.81
5.18
4.84
4.73
4.7
4.7
4.67
4.67
4.67
4.67
4.3
3.96
4.16
4.47
4.56
4.08
4.22
4.3
4.28
4.25
4.3
4.56
4.73
4.73
4.76
4.93
4.93
4.9
4.87
4.87
4.84
4.81
4.79
4.79
4.81
4.96
4.93
4.93
4.9
4.87
4.47
4.39
4.56
4.64
4.62
4.59
4.56
4.53
4.64
4.87
5.01
5.07
4.76
4.67
4.64
4.59
4.56
4.53
4.36
4.22
4.19
4.16
4.28
4.39
4.42
4.39
4.36
4.3
4.28
4.22
4.19
3.99
3.71
3.68
3.62
3.6
3.65
3.74
3.71
3.68
3.62
3.74
3.79
3.82
4.08
4.13
4.08
4.05
4.05
1.3
0
0
0
0
0
0
0
0
0
0
0
0
0
0
0
0
0
0
0
0
0
0
0
0
0
0
0
0
0
0
0
0
0
0
0
0
0
0
0
0
0
0
0
0
0
0
0
0
0
0
0
0
0
0
0
0
0
0
0
0
0
0
0
0
0
0
0
0
0
0
0
0
0
0
0
0
0
0
0
0
0
0
0
0
0
0
0
0
0
0
0
0
0
0
0
0
0
0
0
0
0
0
0
0
0
0
0
0
0
0
0
0
0
0
0
0
0
0
0
0
0
0
0
0
0
0
0
0
0
0
0
0
0
0
0
0
0
0
0
0
0
0
0
0
0
0
0
0
0
0
0
0
0
0
0
0
0
0
0
0
0
0
0
0
0
0
0
0
0
0
0
0
0
0
0
0
0
0
0
0
0
0
0
0
0
0
0
0
0
0
0
0
0
0
0
0
0
0
0
0
0
0
0
0
0
0
0
0
0
0.28
1.44
1.9
2.61
3.26
3.23
3.23
3.2
3.6
3.88
3.88
3.85
3.85
3.85
3.85
3.82
3.82
3.82
3.82
3.77
3.77
3.77
3.74
3.71
3.71
3.62
3.37
3.34
3.34
3.34
3.31
3.31
2.92
2.69
2.83
3.31
3.77
3.77
3.68
3.68
3.68
3.65
3.65
3.74
4.05
4.3
4.3
4.22
4.19
4.19
4.16
4.16
4.16
3.94
3.62
3.6
3.6
3.88
4.05
4.13
4.02
3.37
3.2
3.2
3.62
3.85
3.82
3.82
3.82
3.79
3.91
4.25
4.53
4.81
4.87
4.87
4.84
4.7
4.67
4.73
4.79
4.98
5.1
5.01
4.81
4.79
4.76
4.81
4.93
4.9
4.84
4.84
4.79
4.76
4.81
4.9
4.9
4.93
4.98
5.18
5.07
4.76
4.7
4.67
4.64
4.47
4.33
4.56
4.67
4.67
4.73
4.79
4.76
4.73
4.7
4.67
4.64
4.62
4.59
4.56
4.53
4.5
4.47
4.42
4.45
4.56
4.53
4.5
4.47
4.33
4.22
4.3
4.45
4.42
4.39
4.22
4.19
4.19
4.16
4.08
4.02
3.96
3.94
3.88
3.82
3.77
3.71
3.71
3.77
3.82
3.77
3.74
3.62
2.66
0
0
0
0
0
0
0
0
0
0
0
0
0
0
0
0
0
0
0
0
0
0
0
0
0
0
0
0
0
0
0
0
0
0
0
0
0
0
0
0
0
0
0
0
0
0
0
0
0
0
0
0
0
0
0
0
0
0
0
0
0
0
0
0
0
0
0
0
0
0
0
0
0
0
0
0
0
0
0
0
0
0
0
0
0
0
0
0
0
0
0
0
0
0
0
0
0
0
0
0
0
0
0
0
0
0
0
0
0
0
0
0
0
0
0
0
0
0
0
0
0
0
0
0
0
0
0
0
0
0
0
0
0
0
0
0
0
0
0
0
0
0
0
0
0
0
0
0
0
0
0
0
0
0
0
0
0
0
0
0
0
0
0
0
0
0
0
0
0
0
0
0
0
0
0
0
0
0
0
0
0
0
0
0
0
0
0
0
0
0
0
0
0
0
0
0
0
0
0
0
0
0
0
0
0
0
0
0
0
0
0
0
0.88
1.13
0.96
1.44
1.59
1.61
1.22
1.47
2.38
2.61
2.63
2.66
2.69
2.72
2.75
2.78
3.4
4.11
4.13
3.65
3.28
3.31
3.34
3.37
3.37
3.4
3.37
3.65
3.99
3.96
3.94
3.94
3.91
3.88
3.62
3.51
3.65
3.48
3.14
3.06
3.06
3.65
3.85
3.79
3.74
3.74
3.74
3.71
3.94
4.25
4.33
4.33
4.33
4.3
4.11
4.08
4.11
4.11
4.25
4.45
4.45
4.25
4.22
4.19
3.26
3.85
4.16
4.16
4.08
4.39
4.84
5.1
5.15
4.64
4.59
4.59
4.73
4.81
4.64
4.47
4.42
4.42
4.42
4.39
4.47
4.64
4.62
4.59
4.59
4.53
4.59
4.67
4.81
4.79
4.53
4.36
4.36
4.33
4.33
4.33
4.33
4.56
4.42
4.39
4.47
4.7
4.7
4.67
4.42
4.25
4.22
4.05
3.23
3.82
3.88
3.96
4.05
3.99
4.16
4.62
4.79
4.87
4.81
4.76
4.76
4.9
4.84
4.79
4.73
4.67
4.62
4.59
4.53
4.53
4.64
4.47
4.28
4.22
4.36
4.42
4.36
4.33
4.28
4.22
4.16
4.11
4.05
4.08
3.96
3.82
3.74
3.65
3.71
3.85
4.08
4.19
4.19
3.99
3.88
3.82
3.77
3.74
3.71
1.22
0
0
0
0
0
0
0
0
0
0
0
0
0
0
0
0
0
0
0
0
0
0
0
0
0
0
0
0
0
0
0
0
0
0
0
0
0
0
0
0
0
0
0
0
0
0
0
0
0
0
0
0
0
0
0
0
0
0
0
0
0
0
0
0
0
0
0
0
0
0
0
0
0
0
0
0
0
0
0
0
0
0
0
0
0
0
0
0
0
0
0
0
0
0
0
0
0
0
0
0
0
0
0
0
0
0
0
0
0
0
0
0
0
0
0
0
0
0
0
0
0
0
0
0
0
0
0
0
0
0
0
0
0
0
0
0
0
0
0
0
0
0
0
0
0
0
0
0
0
0
0
0
0
0
0
0
0
0
0
0
0
0
0
0
0
0
0
0
0
0
0
0
0
0
0
0
0
0
0
0
0
0
0
0
0
0
0
0
0
0
0
0
0
0
0
0
0
0
0
0
1.3
1.61
1.87
2.66
3.03
3.03
3.03
3.03
2.97
2.89
3.28
3.54
3.54
3.54
0.99
0.91
0.79
0.51
0.62
0.59
3.77
4.11
4.47
4.59
4.22
3.99
3.74
3.57
3.57
3.57
3.54
3.82
4.02
4.02
3.99
3.99
3.99
3.99
3.96
3.94
3.94
3.68
3.48
3.23
3.09
3.34
3.51
3.51
3.48
3.48
3.45
3.43
3.43
3.4
3.37
3.2
2.35
3.17
3.48
3.45
3.43
3.4
3.4
3.4
3.37
3.43
4.02
4.16
4.13
4.13
4.13
3.91
3.62
3.65
4.22
4.19
4.19
4.16
4.16
4.13
4.13
4.13
4.13
4.11
4.11
4.11
4.11
4.11
4.08
4.08
4.08
4.08
4.25
4.33
4.33
4.33
4.33
4.33
4.3
4.33
4.67
5.27
5.18
4.64
4.73
5.24
5.24
5.24
5.24
5.21
5.18
5.15
5.15
5.1
5.01
4.9
4.76
4.62
4.59
4.5
4.33
4.3
4.45
4.62
4.59
4.53
4.5
4.47
4.45
4.39
4.39
4.33
4.3
4.28
4.25
4.22
4.16
4.13
4.11
4.13
4.39
4.39
4.25
4.02
3.94
3.88
3.79
3.77
3.88
3.88
3.88
3.82
3.77
3.62
3.57
3.6
3.57
3.51
3.43
3.34
3.28
3.2
3.11
3.03
1.1
0
0
0
0
0
0
0
0
0
0
0
0
0
0
0
0
0
0
0
0
0
0
0
0
0
0
0
0
0
0
0
0
0
0
0
0
0
0
0
0
0
0
0
0
0
0
0
0
0
0
0
0
0
0
0
0
0
0
0
0
0
0
0
0
0
0
0
0
0
0
0
0
0
0
0
0
0
0
0
0
0
0
0
0
0
0
0
0
0
0
0
0
0
0
0
0
0
0
0
0
0
0
0
0
0
0
0
0
0
0
0
0
0
0
0
0
0
0
0
0
0
0
0
0
0
0
0
0
0
0
0
0
0
0
0
0
0
0
0
0
0
0
0
0
0
0
0
0
0
0
0
0
0
0
0
0
0
0
0
0
0
0
0
0
0
0
0
0
0
0
0
0
0
0
0
0
0
0
0
0
0
0
0
0
0
0
0
0
0
0
0
0
0
0
0
0
0
0
0
1.19
0.82
2.78
2.8
2.94
3.11
3.11
3.14
3.31
3.45
3.28
3.11
2.94
2.78
2.78
2.63
2.32
2.21
2.21
2.21
2.21
2.35
2.55
2.55
2.55
2.55
2.55
2.55
2.55
2.55
2.56
2.57
3.03
3.4
3.2
2.24
2.24
2.29
2.38
2.38
2.38
2.61
3.06
3.06
3.23
3.34
3.34
3.34
3.34
3.34
3.31
3.31
3.54
3.77
3.77
3.74
3.74
3.77
3.74
4.05
4.47
4.53
4.45
4.39
4.39
4.42
4.39
4.13
3.85
2.86
3.57
4.3
4.28
4.22
3.96
3.85
3.94
3.88
3.88
3.88
3.99
4.33
4.3
4.25
4.22
4.11
4.13
4.36
4.47
4.45
4.42
4.64
4.76
4.87
5.13
5.1
5.1
5.07
5.07
5.01
4.96
4.96
4.93
4.9
4.87
4.84
4.53
3.68
4.33
4.42
4.45
4.62
4.56
4.76
4.98
4.93
4.87
4.64
4.53
4.59
4.62
4.3
4.25
4.22
4.16
4.36
4.64
4.59
4.53
4.59
4.76
4.62
4.5
4.47
4.45
4.39
4.42
4.79
4.67
4.56
4.47
4.39
4.3
4.22
4.13
4.05
3.94
3.82
3.71
3.6
3.68
3.74
3.71
3.54
3.11
2.72
2.44
2.35
2.66
2.61
2.55
2.63
2.55
2.46
2.44
2.41
2.24
2.1
2.32
2.32
2.24
0.85
0
0
0
0
0
0
0
0
0
0
0
0
0
0
0
0
0
0
0
0
0
0
0
0
0
0
0
0
0
0
0
0
0
0
0
0
0
0
0
0
0
0
0
0
0
0
0
0
0
0
0
0
0
0
0
0
0
0
0
0
0
0
0
0
0
0
0
0
0
0
0
0
0
0
0
0
0
0
0
0
0
0
0
0
0
0
0
0
0
0
0
0
0
0
0
0
0
0
0
0
0
0
0
0
0
0
0
0
0
0
0
0
0
0
0
0
0
0
0
0
0
0
0
0
0
0
0
0
0
0
0
0
0
0
0
0
0
0
0
0
0
0
0
0
0
0
0
0
0
0
0
0
0
0
0
0
0
0
0
0
0
0
0
0
0
0
0
0
0
0
0
0
0
0
0
0
0
0
0
0
0
0
0
0
0
0
0
0
0
0
0
0
1.27
1.78
2.35
3.06
3.48
3.65
3.71
3.85
3.74
3
2.55
2.35
2.63
2.78
2.78
2.41
2.27
2.69
2.89
3.03
3.31
3.31
3.31
3.17
3.06
3.34
3.51
3.51
3.51
3.74
4.13
4.13
3.91
3.48
3.34
2.72
2.44
2.52
2.72
2.69
2.69
2.69
2.66
3.23
3.37
3.26
2.75
2.27
2.27
2.27
2.24
2.24
2.27
2.27
2.38
2.78
3.43
3.79
3.79
3.79
3.79
3.79
3.62
3.51
2.55
1.67
1.67
1.67
2.07
2.78
3.71
3.68
3.68
3.68
3.68
3.68
3.88
4.67
4.76
4.7
4.36
4.16
4.11
3.11
3.68
4.42
4.39
4.19
4.02
3.99
3.96
4.05
4.3
4.45
4.81
4.81
4.79
4.76
4.87
5.18
5.13
4.96
4.87
4.64
4.62
4.62
4.81
4.64
4.5
4.47
4.47
4.45
4.42
4.42
4.42
4.42
4.19
4.08
4.05
4.13
4.39
4.33
4.08
3.94
3.91
3.96
4.33
4.45
4.42
4.39
4.13
3.96
3.94
4.11
4.33
4.42
4.28
4.13
4.08
4.05
3.99
3.71
3.09
3.11
3.2
3.28
3.48
3.85
3.99
3.94
3.88
3.82
3.88
4.02
3.96
4.02
4.08
3.99
3.94
3.88
3.82
3.62
3.31
3.11
3.09
3.03
2.97
2.92
3.06
3.37
3.45
3.4
1.25
0
0
0
0
0
0
0
0
0
0
0
0
0
0
0
0
0
0
0
0
0
0
0
0
0
0
0
0
0
0
0
0
0
0
0
0
0
0
0
0
0
0
0
0
0
0
0
0
0
0
0
0
0
0
0
0
0
0
0
0
0
0
0
0
0
0
0
0
0
0
0
0
0
0
0
0
0
0
0
0
0
0
0
0
0
0
0
0
0
0
0
0
0
0
0
0
0
0
0
0
0
0
0
0
0
0
0
0
0
0
0
0
0
0
0
0
0
0
0
0
0
0
0
0
0
0
0
0
0
0
0
0
0
0
0
0
0
0
0
0
0
0
0
0
0
0
0
0
0
0
0
0
0
0
0
0
0
0
0
0
0
0
0
0
0
0
0
0
0
0
0
0
0
0
0
0
0
0
0
0
0
0
0
0
0
0
0
0
0
0
0
0
1.31
1.61
1.77
2.18
2.19
2.86
3.22
3.22
3.22
3.21
3.21
3.22
3.21
3.21
3.2
3.2
3.2
3.2
3.2
3.06
2.93
2.93
2.93
3.15
3.69
3.39
3.38
3.59
3.73
3.72
3.72
3.71
3.71
3.71
3.17
2.82
2.82
3.06
3.24
3.24
3
2.45
2.45
2.46
2.47
2.47
2.47
2.48
3.04
3.69
3.96
3.96
3.94
3.92
3.91
3.91
3.8
3.2
3.49
3.66
3.66
3.64
3.64
3.62
3.61
3.99
4.46
4.43
4.41
4.73
4.5
4.17
4.15
4.14
4.12
4.24
4.57
4.54
4.52
4.5
4.48
4.46
4.45
4.44
4.46
4.5
4.5
4.49
4.48
4.47
4.44
4.44
4.44
4
3.73
3.73
3.99
4.4
4.54
4.53
4.52
4.5
4.49
4.48
4.35
4.28
4.27
4.27
4.26
4.25
4.23
4.21
4.19
4.34
4.47
4.46
4.43
4.63
4.14
4.32
4.6
4.58
4.56
4.55
4.54
4.53
4.51
4.5
4.47
4.44
4.4
4.35
4.44
4.47
4.41
4.34
4.29
4.23
4.28
4.37
4.61
4.91
4.79
4.4
4.09
3.79
3.81
3.93
3.86
3.89
3.99
4.11
4
3.89
3.8
3.7
3.6
3.41
3.31
3.3
3.42
3.51
3.56
2.51
1.66
1.07
0.46
0.03
0
0
0
0
0
0
0
0
0
0
0
0
0
0
0
0
0
0
0
0
0
0
0
0
0
0
0
0
0
0
0
0
0
0
0
0
0
0
0
0
0
0
0
0
0
0
0
0
0
0
0
0
0
0
0
0
0
0
0
0
0
0
0
0
0
0
0
0
0
0
0
0
0
0
0
0
0
0
0
0
0
0
0
0
0
0
0
0
0
0
0
0
0
0
0
0
0
0
0
0
0
0
0
0
0
0
0
0
0
0
0
0
0
0
0
0
0
0
0
0
0
0
0
0
0
0
0
0
0
0
0
0
0
0
0
0
0
0
0
0
0
0
0
0
0
0
0
0
0
0
0
0
0
0
0
0
0
0
0
0
0
0
0
0
0
0
0
0
0
0
0
0
0
0
0
0
0
0
0
0
0
0
0
0
0
0
0
0
0
0
0
0
0
0
0
0
0
0
0
0
0
0
0
1.14
0.8
0.8
0
0
0
0
0
0
0
0
0
0
0
0
2.2
2.76
3.02
3.51
3.89
4.13
4.13
3.93
3.66
3.67
3.66
3.66
3.65
3.65
3.64
3.64
3.63
3.72
3.92
3.91
3.91
3.9
3.89
3.47
3.21
2.81
2.42
2.42
2.42
2.42
2.42
2.42
2.64
3.39
3.57
3.56
3.55
3.54
2.98
2.37
2.97
2.99
3.49
3.66
3.64
3.63
3.62
3.28
2.9
2.89
2.89
3.1
3.25
3.31
3.59
3.59
3.59
3.63
3.89
3.95
4.43
4.79
4.82
4.72
4.35
4.15
4.15
4.42
4.58
4.59
4.42
3.6
3.93
4.23
4.35
4.28
4.17
4.15
4.11
4.08
4.07
4.29
4.41
4.39
4.37
4.35
4.31
4.28
4.27
4.43
4.53
4.41
4.28
4.26
4.25
4.11
4
3.93
3.46
3.76
3.95
4
3.98
3.95
3.94
3.9
3.9
3.9
3.9
3.86
4.01
4.21
4.2
4.16
4.15
4.11
4.2
4.33
4.38
4.36
4.29
4.21
4.17
4.13
4.11
4.08
3.95
3.85
3.82
3.79
3.82
4.1
4.21
4.09
3.93
3.9
3.77
3.68
3.64
3.62
3.44
3.28
3.23
3.2
3.16
3.23
3.27
2.98
2.73
2.71
2.67
2.73
2.84
2.83
2.91
2.84
2.8
1.43
0
0
0
0
0
0
0
0
0
0
0
0
0
0
0
0
0
0
0
0
0
0
0
0
0
0
0
0
0
0
0
0
0
0
0
0
0
0
0
0
0
0
0
0
0
0
0
0
0
0
0
0
0
0
0
0
0
0
0
0
0
0
0
0
0
0
0
0
0
0
0
0
0
0
0
0
0
0
0
0
0
0
0
0
0
0
0
0
0
0
0
0
0
0
0
0
0
0
0
0
0
0
0
0
0
0
0
0
0
0
0
0
0
0
0
0
0
0
0
0
0
0
0
0
0
0
0
0
0
0
0
0
0
0
0
0
0
0
0
0
0
0
0
0
0
0
0
0
0
0
0
0
0
0
0
0
0
0
0
0
0
0
0
0
0
0
0
0
0
0
0
0
0
0
0
0
0
0
0
0
0
0
0
0
0
0
0
0
0
0
1.35
1.49
2.42
3.02
3.02
3.42
3.67
3.67
3.66
3.52
3.3
3.29
3.63
3.65
3.5
3.5
3.49
3.48
3.48
3.47
3.46
3.46
3.35
3.04
2.8
2.55
2.55
2.54
2.93
3.36
3.35
3.34
3.34
3.33
3.33
3.39
3.89
3.89
3.87
3.87
3.87
3.67
3.52
3.33
2.73
3.33
3.45
3.45
3.44
3.77
3.94
3.93
3.91
3.95
4.19
4.18
3.57
2.59
2.59
3.32
3.99
3.98
3.97
3.96
3.95
3.94
3.93
3.92
3.91
3.9
4.15
4.33
4.31
4.29
4.26
4.26
3.98
3.8
3.78
4.22
4.38
4.15
4.03
4.02
4.01
3.99
4.1
4.35
4.2
3.92
4.25
4.59
4.57
4.55
4.54
4.52
4.5
3.42
3.92
4.44
4.27
3.98
3.95
3.93
4.08
4.31
4.39
4.22
4.13
4.21
4.19
4.32
4.4
4.37
4.2
4.1
4.19
4.17
4.3
4.54
4.61
4.57
4.52
4.39
4.23
4.19
4.15
4.31
4.37
4.33
4.27
4.15
4.07
4.05
4
3.99
4.06
4
3.87
3.74
3.8
3.81
3.94
4.06
4
3.92
3.85
3.91
3.93
3.84
3.79
3.8
3.71
3.63
3.62
3.6
3.62
3.59
3.56
3.52
3.5
3.5
3.57
3.71
3.75
3.73
3.74
3.74
3.82
3.89
3.9
3.83
3.37
2.21
0
0
0
0
0
0
0
0
0
0
0
0
0
0
0
0
0
0
0
0
0
0
0
0
0
0
0
0
0
0
0
0
0
0
0
0
0
0
0
0
0
0
0
0
0
0
0
0
0
0
0
0
0
0
0
0
0
0
0
0
0
0
0
0
0
0
0
0
0
0
0
0
0
0
0
0
0
0
0
0
0
0
0
0
0
0
0
0
0
0
0
0
0
0
0
0
0
0
0
0
0
0
0
0
0
0
0
0
0
0
0
0
0
0
0
0
0
0
0
0
0
0
0
0
0
0
0
0
0
0
0
0
0
0
0
0
0
0
0
0
0
0
0
0
0
0
0
0
0
0
0
0
0
0
0
0
0
0
0
0
0
0
0
0
0
0
0
0
0
0
0
0
0
0
0
0
0
0
0
0
0
0
0
0
0
0
0
0
0
0
0
0.87
0.46
0
0.7
1.07
1.51
2.13
2.41
2.73
3.2
3.35
3.35
3.35
3.36
3.36
3.36
3.02
2.94
3.55
3.81
3.81
3.81
3.81
3.7
3.6
3.6
3.6
3.61
3.62
3.62
3.62
3.53
2.99
2.7
2.71
2.71
2.71
3.04
3.45
3.52
3.78
3.67
3.5
3.33
2.68
2.4
2.52
2.67
2.66
2.66
2.48
2.34
2.36
2.62
2.9
3.12
2.61
2.28
2.29
2.38
2.79
3.12
3.12
3.12
3.1
3.09
3.08
3.06
3.37
3.54
3.57
3.47
3.46
3.53
3.68
3.68
3.66
3.65
3.64
3.76
3.73
3.54
3.15
3.59
3.92
4.17
4.21
4.37
4.2
4.11
4.1
4.17
4.23
4.22
4.25
4.44
4.53
4.62
4.69
4.48
4.23
4.1
4.14
4.17
4.15
4.13
4.11
4.09
4.08
4.07
4.49
4.66
4.63
3.58
4.57
4.7
4.43
4.3
4.44
4.8
4.86
4.48
4.34
4.17
4.22
4.44
4.47
4.52
4.63
4.58
4.42
4.38
4.37
4.23
4.08
3.89
3.78
3.72
3.8
3.82
3.82
4.05
4.07
4.09
4.17
4.08
4.18
4.16
3.97
3.84
3.77
3.72
3.65
3.59
3.52
3.47
3.41
3.41
3.41
3.41
3.52
3.61
3.58
3.57
3.56
3.54
3.41
3.4
3.32
3.25
3.22
3.21
3.2
3.19
3.18
3.16
3.16
3.16
3.09
3.04
2.92
2.51
1.91
0
0
0
0
0
0
0
0
0
0
0
0
0
0
0
0
0
0
0
0
0
0
0
0
0
0
0
0
0
0
0
0
0
0
0
0
0
0
0
0
0
0
0
0
0
0
0
0
0
0
0
0
0
0
0
0
0
0
0
0
0
0
0
0
0
0
0
0
0
0
0
0
0
0
0
0
0
0
0
0
0
0
0
0
0
0
0
0
0
0
0
0
0
0
0
0
0
0
0
0
0
0
0
0
0
0
0
0
0
0
0
0
0
0
0
0
0
0
0
0
0
0
0
0
0
0
0
0
0
0
0
0
0
0
0
0
0
0
0
0
0
0
0
0
0
0
0
0
0
0
0
0
0
0
0
0
0
0
0
0
0
0
0
0
0
0
0
0
0
0
0
0
0
0
0
0
0
0
0
0
0
0
1.12
1.22
1.23
1.19
1.95
2.29
2.29
2.29
2.29
2.3
2.31
2.44
2.65
2.65
2.65
2.65
2.65
2.65
2.65
2.65
2.65
2.65
2.65
2.65
2.65
2.65
2.45
2.08
2.08
2.07
2.42
2.64
2.64
2.64
2.64
2.64
2.63
2.63
2.74
3.03
3.15
3.14
3.12
3.12
3.11
3.11
3.1
3.1
3.14
3.22
3.38
3.58
3.57
3.71
3.78
3.77
3.76
3.48
3.63
3.63
3.62
3.61
3.6
3.65
3.83
3.89
3.91
3.9
3.9
3.92
4.09
4.15
4.12
4.05
3.98
3.96
4.15
4.26
3.52
3.84
4.01
4
3.99
4.02
4.08
4.27
4.43
4.28
4.21
4.04
3.95
3.93
4.09
4.22
4.21
4.18
4.16
4.2
4.4
4.47
4.43
4.41
4.38
4.35
4.33
4.3
3.77
4.18
4.14
4.11
4.08
4.05
4.02
4
4.14
4.31
4.47
4.51
4.52
4.43
4.12
4
3.98
3.95
4.05
4.23
4.25
4.17
4.09
4.05
4.06
4.08
4.02
4.02
4.01
3.95
3.89
3.89
4.05
4.07
4.01
3.96
3.94
3.92
3.94
4
4.1
4.11
3.7
4.03
4
3.47
3.35
3.11
3.11
3.37
3.51
3.5
3.48
3.7
3.82
3.79
3.68
3.41
3.31
3.3
3.37
3.39
3.33
3.29
3.33
3.34
3.31
3.22
3.01
2.84
2.29
0
0
0
0
0
0
0
0
0
0
0
0
0
0
0
0
0
0
0
0
0
0
0
0
0
0
0
0
0
0
0
0
0
0
0
0
0
0
0
0
0
0
0
0
0
0
0
0
0
0
0
0
0
0
0
0
0
0
0
0
0
0
0
0
0
0
0
0
0
0
0
0
0
0
0
0
0
0
0
0
0
0
0
0
0
0
0
0
0
0
0
0
0
0
0
0
0
0
0
0
0
0
0
0
0
0
0
0
0
0
0
0
0
0
0
0
0
0
0
0
0
0
0
0
0
0
0
0
0
0
0
0
0
0
0
0
0
0
0
0
0
0
0
0
0
0
0
0
0
0
0
0
0
0
0
0
0
0
0
0
0
0
0
0
0
0
0
0
0
0
0
0
0
0
0
0
0
0
0
0
0
0
0
0
0
0
0.94
1.06
1.36
1.57
1.57
1.88
2.05
2.35
2.75
2.92
2.96
3.22
3.35
3.35
3.17
2.81
2.83
2.84
2.85
2.85
3.07
3.22
3.03
2.69
2.7
2.71
2.73
2.74
3.13
3.31
3.17
3.19
3.19
3.2
3.19
3.2
3.19
3.2
3.21
3.22
3.22
3.23
3.24
3.11
2.86
2.8
2.8
2.8
2.88
3.03
2.73
2.33
2.25
2.25
2.24
2.24
2.24
2.24
2.23
2.23
2.23
2.23
2.56
2.96
2.96
2.83
2.59
2.58
2.79
2.95
2.95
2.94
3.14
3.37
3.24
3.01
3.08
3.15
3.42
3.77
3.77
3.75
3.74
3.73
3.72
3.51
3.8
3.87
3.86
3.85
4.09
4.28
4.28
4.42
4.41
4.4
4.38
4.29
4.12
4.25
4.31
4.3
4.28
4.28
4.27
4.26
4.16
4.03
4.02
4.12
4.29
3.78
4.17
4.08
4.21
4.19
4.18
4.15
4.13
4.11
4.09
4.08
3.93
3.71
3.63
3.52
3.51
3.75
3.95
3.93
3.91
3.95
4.03
4.03
4.01
3.98
3.94
3.91
3.79
3.66
3.57
3.65
3.68
3.63
3.51
3.33
3.31
3.23
2.98
3.04
3.17
3.15
3.13
3.11
3.43
3.51
3.42
3.39
3.24
3.1
3.14
3.41
3.39
3.21
2.91
2.19
2.18
1.87
1.82
1.98
1.93
1.81
1.71
1.93
2.21
2.29
2.59
2.71
2.52
2.49
2.46
2.5
2.59
2.55
2.5
2.44
2.22
2.06
2.02
1.86
1.37
1.03
0
0
0
0
0
0
0
0
0
0
0
0
0
0
0
0
0
0
0
0
0
0
0
0
0
0
0
0
0
0
0
0
0
0
0
0
0
0
0
0
0
0
0
0
0
0
0
0
0
0
0
0
0
0
0
0
0
0
0
0
0
0
0
0
0
0
0
0
0
0
0
0
0
0
0
0
0
0
0
0
0
0
0
0
0
0
0
0
0
0
0
0
0
0
0
0
0
0
0
0
0
0
0
0
0
0
0
0
0
0
0
0
0
0
0
0
0
0
0
0
0
0
0
0
0
0
0
0
0
0
0
0
0
0
0
0
0
0
0
0
0
0
0
0
0
0
0
0
0
0
0
0
0
0
0
0
0
0
0
0
0
0
0
0
0
0
0
0
0
0
0
0
0
0
1.32
1
1
1.59
1.89
1.89
1.9
1.88
1.87
1.87
2.16
2.38
2.37
2.37
2.37
2.36
2.36
2.36
2.36
2.55
2.68
2.68
2.68
2.67
2.67
2.67
2.09
2.1
2.82
2.82
2.81
2.82
2.81
3.09
3.23
3.03
2.76
2.68
2.34
2.15
2.35
2.74
3.1
3.09
2.88
2.77
2.39
2.54
2.56
2.56
2.56
2.55
2.54
2.54
2.54
2.53
2.52
2.51
2.5
2.82
2.66
2.48
2.47
2.9
3.11
3.11
2.98
2.53
3.11
3.33
3.57
3.63
3.53
3.52
3.5
3.58
3.84
3.93
3.93
3.91
3.93
3.97
4.06
4.02
3.88
3.86
3.85
3.88
4.05
4.21
4.22
4.1
3.8
3.77
3.76
3.21
3.69
4.09
4.14
4.02
3.69
3.63
3.63
3.51
3.5
3.67
4.09
4.22
4.21
4.14
4.04
4.17
4.32
4.3
4.28
4.26
4.24
4.3
4.29
4.24
4.22
4.13
3.96
4.14
4.27
4.25
4.23
4.21
4
3.88
3.93
3.96
3.93
3.91
3.89
3.86
3.83
3.88
4.07
4.04
3.96
3.94
3.9
3.88
3.87
3.84
3.81
3.78
3.75
3.49
3.44
3.66
3.82
3.78
3.75
3.7
3.67
3.63
3.6
3.58
3.4
3.3
3.26
3.23
3.2
3.17
3.14
3.09
3.05
3.03
3
2.96
2.94
2.91
2.75
2.64
2.61
2.59
2.38
2.2
2.18
2.16
2.13
2.08
2.06
2.02
1.98
1.95
1.92
1.9
0
0
0
0
0
0
0
0
0
0
0
0
0
0
0
0
0
0
0
0
0
0
0
0
0
0
0
0
0
0
0
0
0
0
0
0
0
0
0
0
0
0
0
0
0
0
0
0
0
0
0
0
0
0
0
0
0
0
0
0
0
0
0
0
0
0
0
0
0
0
0
0
0
0
0
0
0
0
0
0
0
0
0
0
0
0
0
0
0
0
0
0
0
0
0
0
0
0
0
0
0
0
0
0
0
0
0
0
0
0
0
0
0
0
0
0
0
0
0
0
0
0
0
0
0
0
0
0
0
0
0
0
0
0
0
0
0
0
0
0
0
0
0
0
0
0
0
0
0
0
0
0
0
0
0
0
0
0
0
0
0
0
0
0
0
0
0
0
0
0
0
0
1.17
1.18
1.19
1.19
1.21
1.66
1.93
2.06
2.09
1.92
1.92
1.92
2.09
2.34
1.89
1.99
2.22
2.11
2.11
2.33
2.32
2.07
1.75
1.66
1.66
1.66
1.66
1.65
1.88
2
2
1.99
1.99
2.42
2.76
2.75
2.59
2.83
3.02
3.11
3.32
3.33
3.34
3.33
3.34
3.35
3.2
2.99
2.57
2.25
2.17
2.5
2.98
3.11
3.11
3.12
3.11
3.1
3.25
3.56
3.54
3.18
2.61
2.3
2.23
2.23
2.24
2.24
2.78
3.44
3.55
3.55
3.42
3.4
3.46
3.48
3.47
3.46
3.46
3.65
3.58
3.36
3.33
3.34
3.31
3.37
3.42
3.41
3.39
3.37
3.35
3.35
3.57
3.68
3.65
3.74
3.97
4.05
4.15
4.21
4.19
3.97
3.8
3.68
3.57
3.64
3.7
3.7
3.59
3.52
3.5
3.72
3.88
3.99
3.94
3.79
3.7
3.79
3.96
3.63
3.55
3.3
3.39
3.62
3.89
4.18
4.19
3.84
3.59
3.71
3.81
3.77
3.75
3.73
3.72
3.71
3.6
3.42
3.4
3.37
3.36
3.35
3.33
3.32
3.3
3.28
3.26
3.4
3.47
3.46
3.44
3.43
3.39
3.46
3.49
3.47
3.45
3.43
3.41
3.39
3.37
3.35
3.16
3.05
3.02
3.15
3.3
3.28
3.26
3.16
2.9
2.86
2.84
2.83
2.8
2.77
2.76
2.7
2.74
2.53
2.41
2.48
2.51
2.49
2.47
2.45
2.44
2.37
2.31
2.29
2.28
2.25
2.23
2.22
2.11
1.85
1.63
1.54
1.52
1.51
1.51
1.35
1.15
0
0
0
0
0
0
0
0
0
0
0
0
0
0
0
0
0
0
0
0
0
0
0
0
0
0
0
0
0
0
0
0
0
0
0
0
0
0
0
0
0
0
0
0
0
0
0
0
0
0
0
0
0
0
0
0
0
0
0
0
0
0
0
0
0
0
0
0
0
0
0
0
0
0
0
0
0
0
0
0
0
0
0
0
0
0
0
0
0
0
0
0
0
0
0
0
0
0
0
0
0
0
0
0
0
0
0
0
0
0
0
0
0
0
0
0
0
0
0
0
0
0
0
0
0
0
0
0
0
0
0
0
0
0
0
0
0
0
0
0
0
0
0
0
0
0
0
0
0
0
0
0
0
0
0
1.05
1
1
1
1
1.06
1.31
1.56
1.56
1.56
1.56
1.56
1.55
1.55
1.8
2.06
2.06
2.05
2.05
2.05
2.04
2.03
2.18
2.29
2.29
2.28
2.28
2.44
2.62
2.85
3.09
3.09
3.01
2.72
2.68
2.96
3.11
3.1
3.1
3.1
3.26
3.35
3.35
3.34
3.33
3.34
3.26
2.93
2.9
2.67
2.32
2.58
2.76
2.87
2.87
2.84
2.55
2.46
2.45
2.44
2.44
2.44
2.43
2.43
2.62
2.78
2.84
3.26
3.4
3.48
3.57
3.44
3.53
3.63
3.67
3.57
3.46
3.46
3.45
3.76
3.93
3.91
3.75
3.52
3.18
3.1
3.29
3.56
3.39
2.9
2.72
2.88
3.18
3.5
3.79
3.9
4
4.06
4.03
3.94
3.99
4.13
4.13
4.12
4.1
4.09
4.17
4.3
4.29
4.21
4.11
4.1
4.2
4.25
4.24
4.25
4.25
4.24
4.23
4.09
3.97
3.93
3.94
3.93
3.96
3.97
3.79
3.48
3.43
3.53
3.51
3.45
3.51
3.82
3.83
3.77
3.75
3.73
3.71
3.68
3.66
3.65
3.61
3.59
3.61
3.57
3.53
3.5
3.47
3.44
3.41
3.39
3.15
3.05
3.11
3.09
3.08
3.08
2.99
2.9
2.55
2.39
2.23
2.15
2.15
2.26
2.48
2.57
2.56
2.56
2.56
2.46
2.1
1.96
1.95
1.95
2.13
2.22
2.2
1.93
1.76
1.85
1.97
1.94
1.94
1.91
1.88
1.86
1.84
1.82
1.8
0
0
0
0
0
0
0
0
0
0
0
0
0
0
0
0
0
0
0
0
0
0
0
0
0
0
0
0
0
0
0
0
0
0
0
0
0
0
0
0
0
0
0
0
0
0
0
0
0
0
0
0
0
0
0
0
0
0
0
0
0
0
0
0
0
0
0
0
0
0
0
0
0
0
0
0
0
0
0
0
0
0
0
0
0
0
0
0
0
0
0
0
0
0
0
0
0
0
0
0
0
0
0
0
0
0
0
0
0
0
0
0
0
0
0
0
0
0
0
0
0
0
0
0
0
0
0
0
0
0
0
0
0
0
0
0
0
0
0
0
0
0
0
0
0
0
0
0
0
0
0
0
0
0
0
0
0
0
0
0
0
0
0
0
0
0
0
0
0
0
0
0
0
0
0
0.95
0.78
0.78
0.79
0.79
0.8
1.09
1.31
1.41
1.41
1.66
2.1
2.59
2.82
2.9
2.98
2.98
2.97
2.96
2.87
2.63
2.54
2.73
2.87
2.76
2.69
2.68
2.68
2.67
2.67
2.66
3.03
3.37
3.43
3.42
3.32
3.24
3.11
3.01
3.07
3.13
3.08
2.84
2.75
2.75
3.01
3.51
3.79
3.63
3.25
3.31
3.31
3.54
3.68
3.64
3.76
3.58
3.43
3.43
3.48
3.63
3.68
3.79
3.9
4.05
4.1
3.75
3.51
3.69
3.74
3.83
3.85
3.85
3.84
3.9
3.98
3.76
3.33
3.27
3.14
3.27
3.27
3.54
3.83
3.82
3.76
3.87
3.86
3.84
3.84
3.63
3.52
3.5
3.56
3.81
4.09
4
3.8
3.95
4.08
4.06
4.14
4.29
4.38
4.36
4.32
4.26
4.24
4.23
4.16
3.86
3.84
3.94
4.22
4.27
4.1
3.99
3.96
4.03
4.08
4.16
4.2
4.18
4.25
4.35
4.38
4.35
4.32
4.29
4.1
3.98
3.97
3.95
3.93
3.91
3.9
3.82
3.58
3.49
3.37
3.14
2.99
3.08
3.29
3.31
3.4
3.4
3.25
3.2
3.31
3.37
3.34
3.3
3.28
3.17
3.08
3.16
3.14
3.08
3.05
3.03
3.05
3.12
3.2
3.29
3.33
3.12
2.99
2.96
2.82
2.75
2.75
2.72
2.7
2.69
2.74
2.9
2.96
2.76
2.64
2.62
2.59
2.58
2.62
2.74
2.71
2.69
2.65
2.66
2.65
2.64
2.63
2.62
2.6
2.56
2.54
2.58
2.65
2.68
2.53
2.36
2.32
2.28
2.28
2.23
1.99
1.88
1.71
1.32
1.13
0
0
0
0
0
0
0
0
0
0
0
0
0
0
0
0
0
0
0
0
0
0
0
0
0
0
0
0
0
0
0
0
0
0
0
0
0
0
0
0
0
0
0
0
0
0
0
0
0
0
0
0
0
0
0
0
0
0
0
0
0
0
0
0
0
0
0
0
0
0
0
0
0
0
0
0
0
0
0
0
0
0
0
0
0
0
0
0
0
0
0
0
0
0
0
0
0
0
0
0
0
0
0
0
0
0
0
0
0
0
0
0
0
0
0
0
0
0
0
0
0
0
0
0
0
0
0
0
0
0
0
0
0
0
0
0
0
0
0
0
0
0
0
0
0
0
0
0.01
0.01
0.01
0.01
0.61
1.08
1.08
1.21
1.36
1.36
1.59
1.71
1.97
2.11
2.11
2.1
2.1
2.1
2.1
2.32
2.42
2.36
2.2
2.29
2.56
2.63
2.67
2.91
3.03
3.12
3.26
3.26
3.25
3.16
3.09
3.08
3.08
3.08
3.21
3.35
3.35
3.28
3.24
3.23
3.23
3.22
3.23
3.24
3.34
3.5
3.5
3.51
3.36
2.9
2.58
2.54
2.52
2.52
2.68
2.88
2.89
2.87
2.96
3.15
3.16
3.32
3.46
3.49
3.63
3.78
3.73
3.65
3.66
3.7
3.67
3.73
3.74
3.7
3.66
3.71
3.76
3.79
3.84
3.86
3.86
3.85
3.84
3.74
3.85
3.98
3.98
3.88
3.82
3.9
3.96
3.93
3.95
4.09
4.16
4.2
4.3
4.29
4.06
4.17
4.17
4.25
4.29
4.26
4.25
4.22
4.19
4.24
4.16
4.08
4.05
4
3.97
3.91
3.89
3.95
3.97
3.96
3.99
4.15
4.24
4.2
4.11
4
3.98
4.02
4.05
4
3.95
3.9
3.86
3.85
3.84