 .Wgn file Subbasin: 7 STATION NAME:356546 8/4/2017 12:00:00 AM ArcSWAT 2012.10_2.19
  LATITUDE =  45.70 LONGITUDE =-118.83
  ELEV [m] = 451.70
  RAIN_YRS =  51.00
  4.58  8.26 12.47 16.35 21.16 26.11 31.24 30.25 25.00 17.62  9.41  4.77
 -2.48 -0.47  1.72  4.01  7.64 11.23 14.34 13.99  9.84  4.77  1.00 -2.11
  6.84  5.49  4.42  4.45  5.21  5.41  4.92  4.87  5.09  5.03  5.43  6.51
  6.02  4.68  3.30  3.14  3.34  3.27  3.28  3.19  3.42  3.71  4.43  5.67
  36.3  26.5  28.3  26.2  27.9  19.3   8.1  11.3  13.2  22.9  37.9  36.8
  3.89  3.36  3.36  4.30  4.55  4.53  4.80  7.14  4.37  4.61  4.34  3.93
  2.32  2.68  2.46  2.89  2.34  2.03  2.35  4.21  2.58  2.42  2.40  2.44
  0.21  0.19  0.19  0.18  0.14  0.10  0.05  0.06  0.08  0.12  0.25  0.21
  0.44  0.38  0.35  0.29  0.39  0.31  0.24  0.19  0.27  0.31  0.35  0.43
  8.35  6.69  7.10  5.98  5.67  3.94  1.82  2.02  2.84  4.59  8.35  8.33
  2.98  3.99  4.91  3.77  4.19  4.07 13.96 16.37  4.94  3.18 11.09  8.42
  4.82  9.05 14.37 21.29 25.31 27.74 28.99 24.68 18.73 11.27  5.78  4.15
 -2.06 -1.38  0.60  2.14  3.89  5.22  5.41  5.03  3.90  2.32  0.44 -2.51
  3.11  3.19  3.68  3.88  3.89  3.86  3.73  3.64  3.43  3.29  3.29  3.10
