 .Sol file Watershed HRU:146 Subbasin:10 HRU:12 Luse:FRSE Soil: 667029 Slope: 10-20 8/4/2017 12:00:00 AM ArcSWAT 2012.10_4.19
 Soil Name: Tolo
 Soil Hydrologic Group: B
 Maximum rooting depth(mm) : 1520.00
 Porosity fraction from which anions are excluded: 0.500
 Crack volume potential of soil: 0.500
 Texture 1                : SIL-L-CB-CL
 Depth                [mm]:      640.00     1040.00     1520.00
 Bulk Density Moist [g/cc]:        0.78        1.28        1.30
 Ave. AW Incl. Rock Frag  :        0.09        0.05        0.03
 Ksat. (est.)      [mm/hr]:       79.20       10.80       10.80
 Organic Carbon [weight %]:        2.03        0.44        0.15
 Clay           [weight %]:       10.00       26.50       32.50
 Silt           [weight %]:       68.80       41.90       41.20
 Sand           [weight %]:       21.20       31.60       26.30
 Rock Fragments   [vol. %]:        0.00       12.00       27.00
 Soil Albedo (Moist)      :        0.23        0.23        0.23
 Erosion K                :        0.43        0.49        0.32
 Salinity (EC, Form 5)    :        0.00        0.00        0.00
 Soil pH                  :        6.50        6.50        6.50
 Soil CACO3               :        0.00        0.00        0.00
                              
