 .Sol file Watershed HRU:160 Subbasin:11 HRU:3 Luse:WWHT Soil: 667044 Slope: 0-10 8/4/2017 12:00:00 AM ArcSWAT 2012.10_4.19
 Soil Name: Athena
 Soil Hydrologic Group: B
 Maximum rooting depth(mm) : 1650.00
 Porosity fraction from which anions are excluded: 0.500
 Crack volume potential of soil: 0.500
 Texture 1                : SIL-SIL-SIL
 Depth                [mm]:      660.00     1170.00     1650.00
 Bulk Density Moist [g/cc]:        1.20        1.33        1.38
 Ave. AW Incl. Rock Frag  :        0.05        0.05        0.05
 Ksat. (est.)      [mm/hr]:       32.40       32.40       32.40
 Organic Carbon [weight %]:        1.74        0.44        0.15
 Clay           [weight %]:       17.50       22.50       17.50
 Silt           [weight %]:       68.90       68.00       68.90
 Sand           [weight %]:       13.60        9.50       13.60
 Rock Fragments   [vol. %]:        0.00        0.00        0.00
 Soil Albedo (Moist)      :        0.16        0.16        0.16
 Erosion K                :        0.37        0.49        0.49
 Salinity (EC, Form 5)    :        0.00        0.00        1.00
 Soil pH                  :        6.70        7.20        7.80
 Soil CACO3               :        0.00        0.00        0.00
                              
