 .Sol file Watershed HRU:179 Subbasin:13 HRU:2 Luse:FRSE Soil: 666980 Slope: 0-10 8/4/2017 12:00:00 AM ArcSWAT 2012.10_4.19
 Soil Name: Angelpeak
 Soil Hydrologic Group: B
 Maximum rooting depth(mm) : 1570.00
 Porosity fraction from which anions are excluded: 0.500
 Crack volume potential of soil: 0.500
 Texture 1                : GR-SIL-UWB
 Depth                [mm]:      300.00     1570.00
 Bulk Density Moist [g/cc]:        0.75        0.00
 Ave. AW Incl. Rock Frag  :        0.05        0.00
 Ksat. (est.)      [mm/hr]:       33.03       27.72
 Organic Carbon [weight %]:        2.03        0.00
 Clay           [weight %]:        7.50        0.00
 Silt           [weight %]:       70.80        0.00
 Sand           [weight %]:       21.70        0.00
 Rock Fragments   [vol. %]:       23.00        0.00
 Soil Albedo (Moist)      :        0.00        0.25
 Erosion K                :        0.37        0.00
 Salinity (EC, Form 5)    :        0.00        0.00
 Soil pH                  :        6.30        0.00
 Soil CACO3               :        0.00        0.00
                              
