 .Wgn file Subbasin: 4 STATION NAME:356634 8/4/2017 12:00:00 AM ArcSWAT 2012.10_2.19
  LATITUDE =  45.48 LONGITUDE =-118.83
  ELEV [m] = 524.30
  RAIN_YRS =  51.00
  5.80  9.02 12.87 16.56 21.23 26.18 31.66 30.90 25.80 18.62 10.66  6.01
 -3.59 -1.88  0.20  2.24  5.61  8.87 11.29 11.06  7.07  2.61 -0.41 -3.22
  6.96  5.63  4.53  4.62  5.38  5.51  4.86  4.97  5.17  5.19  5.50  6.58
  6.30  5.02  3.61  3.44  3.57  3.38  3.48  3.36  3.52  3.83  4.69  5.78
  36.2  26.7  37.1  34.7  40.0  30.3   8.8  16.7  16.7  25.2  40.5  36.3
  3.74  3.12  4.35  4.14  5.17  5.35  3.51  5.69  4.19  4.29  4.58  3.59
  2.20  2.41  3.27  2.16  2.28  1.75  1.65  2.28  2.01  2.35  2.92  2.71
  0.22  0.20  0.23  0.21  0.18  0.14  0.05  0.07  0.08  0.14  0.26  0.21
  0.39  0.39  0.37  0.37  0.43  0.36  0.26  0.38  0.37  0.35  0.36  0.44
  8.31  7.01  8.40  7.42  7.46  5.32  2.06  3.00  3.40  5.44  8.57  8.53
  2.56  4.09  5.09  3.80  4.11  4.10 15.05 17.40  4.82  3.02 11.23  8.73
  4.82  9.05 14.37 21.29 25.31 27.74 28.99 24.68 18.73 11.27  5.78  4.15
 -2.06 -1.38  0.60  2.14  3.89  5.22  5.41  5.03  3.90  2.32  0.44 -2.51
  3.11  3.19  3.68  3.88  3.89  3.86  3.73  3.64  3.43  3.29  3.29  3.10
