 .Sol file Watershed HRU:33 Subbasin:2 HRU:17 Luse:RNGB Soil: 667018 Slope: 10-20 8/4/2017 12:00:00 AM ArcSWAT 2012.10_4.19
 Soil Name: Morrow
 Soil Hydrologic Group: C
 Maximum rooting depth(mm) : 1220.00
 Porosity fraction from which anions are excluded: 0.500
 Crack volume potential of soil: 0.500
 Texture 1                : SIL-SICL-SICL-SIL-UWB
 Depth                [mm]:      230.00      330.00      510.00      970.00     1220.00
 Bulk Density Moist [g/cc]:        1.30        1.35        1.40        1.40        0.00
 Ave. AW Incl. Rock Frag  :        0.20        0.20        0.20        0.20        0.00
 Ksat. (est.)      [mm/hr]:       32.40       32.40       32.40       32.40       27.72
 Organic Carbon [weight %]:        0.87        0.87        0.44        0.44        0.00
 Clay           [weight %]:       21.50       31.00       28.00       24.00        0.00
 Silt           [weight %]:       67.30       62.10       64.90       66.70        0.00
 Sand           [weight %]:       11.20        6.90        7.10        9.30        0.00
 Rock Fragments   [vol. %]:        4.00        4.00        4.00        4.00        0.00
 Soil Albedo (Moist)      :        0.23        0.23        0.23        0.23        0.23
 Erosion K                :        0.37        0.43        0.43        0.43        0.00
 Salinity (EC, Form 5)    :        0.00        0.00        1.00        1.00        0.00
 Soil pH                  :        7.00        7.20        8.20        8.20        0.00
 Soil CACO3               :        0.00        0.00        0.00        0.00        0.00
                              
