 .Sol file Watershed HRU:26 Subbasin:2 HRU:10 Luse:AGRL Soil: 667021 Slope: 0-10 8/4/2017 12:00:00 AM ArcSWAT 2012.10_4.19
 Soil Name: Warden
 Soil Hydrologic Group: B
 Maximum rooting depth(mm) : 1520.00
 Porosity fraction from which anions are excluded: 0.500
 Crack volume potential of soil: 0.500
 Texture 1                : SIL-VFSL-SR- VFSL SIL
 Depth                [mm]:      130.00      380.00     1520.00
 Bulk Density Moist [g/cc]:        1.28        1.38        1.43
 Ave. AW Incl. Rock Frag  :        0.14        0.18        0.20
 Ksat. (est.)      [mm/hr]:       32.40       32.40       32.40
 Organic Carbon [weight %]:        0.87        0.15        0.15
 Clay           [weight %]:        7.50       11.50       11.50
 Silt           [weight %]:       29.10       27.80       67.70
 Sand           [weight %]:       63.40       60.70       20.80
 Rock Fragments   [vol. %]:        4.00        4.00        4.00
 Soil Albedo (Moist)      :        0.30        0.30        0.30
 Erosion K                :        0.55        0.64        0.64
 Salinity (EC, Form 5)    :        0.00        0.00        1.00
 Soil pH                  :        7.20        7.20        8.50
 Soil CACO3               :        0.00        0.00        0.00
                              
