 .Sol file Watershed HRU:53 Subbasin:5 HRU:2 Luse:AGRL Soil: 666982 Slope: 0-10 8/4/2017 12:00:00 AM ArcSWAT 2012.10_4.19
 Soil Name: Ritzville
 Soil Hydrologic Group: B
 Maximum rooting depth(mm) :  910.00
 Porosity fraction from which anions are excluded: 0.500
 Crack volume potential of soil: 0.500
 Texture 1                : SIL-SIL
 Depth                [mm]:      230.00      910.00
 Bulk Density Moist [g/cc]:        1.20        1.30
 Ave. AW Incl. Rock Frag  :        0.20        0.20
 Ksat. (est.)      [mm/hr]:       33.03       33.03
 Organic Carbon [weight %]:        0.87        0.44
 Clay           [weight %]:        7.50        7.50
 Silt           [weight %]:       70.80       70.80
 Sand           [weight %]:       21.70       21.70
 Rock Fragments   [vol. %]:        2.00        0.00
 Soil Albedo (Moist)      :        0.00        0.00
 Erosion K                :        0.49        0.49
 Salinity (EC, Form 5)    :        0.00        0.00
 Soil pH                  :        7.20        7.20
 Soil CACO3               :        0.00        0.00
                              
