 .Sol file Watershed HRU:58 Subbasin:5 HRU:7 Luse:AGRL Soil: 667022 Slope: 0-10 8/4/2017 12:00:00 AM ArcSWAT 2012.10_4.19
 Soil Name: Shano
 Soil Hydrologic Group: B
 Maximum rooting depth(mm) : 1650.00
 Porosity fraction from which anions are excluded: 0.500
 Crack volume potential of soil: 0.500
 Texture 1                : SIL-SIL-SIL
 Depth                [mm]:       50.00      460.00     1650.00
 Bulk Density Moist [g/cc]:        1.23        1.38        1.38
 Ave. AW Incl. Rock Frag  :        0.19        0.19        0.19
 Ksat. (est.)      [mm/hr]:       32.40       32.40       32.40
 Organic Carbon [weight %]:        0.87        0.15        0.15
 Clay           [weight %]:        7.50        7.50        7.50
 Silt           [weight %]:       70.80       70.80       70.80
 Sand           [weight %]:       21.70       21.70       21.70
 Rock Fragments   [vol. %]:        0.00        0.00        0.00
 Soil Albedo (Moist)      :        0.23        0.23        0.23
 Erosion K                :        0.55        0.64        0.64
 Salinity (EC, Form 5)    :        0.00        1.00        1.00
 Soil pH                  :        7.50        7.90        8.20
 Soil CACO3               :        0.00        0.00        0.00
                              
