 .Wgn file Subbasin: 9 STATION NAME:355396 8/4/2017 12:00:00 AM ArcSWAT 2012.10_2.19
  LATITUDE =  45.50 LONGITUDE =-118.40
  ELEV [m] =1236.90
  RAIN_YRS =  51.00
  0.90  3.51  5.89  9.43 14.64 19.52 25.47 24.65 19.47 12.95  5.52  0.96
 -6.08 -4.82 -3.59 -1.48  2.33  5.68  8.34  7.87  4.05  0.71 -2.35 -5.56
  5.08  4.32  5.16  5.46  5.88  5.76  4.89  5.30  6.03  6.14  4.91  4.53
  6.19  5.23  4.16  3.18  3.86  4.14  4.71  5.15  5.10  4.70  4.57  5.59
 120.4  77.6  86.1  71.2  62.1  42.7  11.2  21.5  40.1  59.5 116.0 120.2
  7.87  5.97  5.76  5.14  5.51  7.44  4.87  6.55 10.07  7.67  8.88  8.05
  1.95  2.25  2.07  1.72  1.69  3.32  1.84  1.54  3.88  1.96  2.53  2.43
  0.33  0.30  0.31  0.31  0.21  0.16  0.05  0.08  0.11  0.19  0.33  0.33
  0.66  0.57  0.61  0.54  0.54  0.44  0.30  0.29  0.42  0.46  0.60  0.65
 15.18 11.49 13.74 12.08  9.80  6.52  2.12  3.12  4.69  7.94 13.54 15.02
  2.76  3.75  3.82  4.82  3.65  4.53 14.59 10.26  4.47  3.07 18.33 13.68
  4.82  9.05 14.37 21.29 25.31 27.74 28.99 24.68 18.73 11.27  5.78  4.15
 -5.24 -5.23 -3.17 -1.05  2.33  4.46  4.71  3.88  1.31  0.01 -2.61 -5.03
  0.95  0.81  0.97  0.97  1.04  1.04  0.92  0.89  0.79  0.70  0.82  0.87
