 .Sol file Watershed HRU:84 Subbasin:6 HRU:16 Luse:RNGB Soil: 667020 Slope: 0-10 8/4/2017 12:00:00 AM ArcSWAT 2012.10_4.19
 Soil Name: Quincy
 Soil Hydrologic Group: A
 Maximum rooting depth(mm) : 1520.00
 Porosity fraction from which anions are excluded: 0.500
 Crack volume potential of soil: 0.500
 Texture 1                : LFS-LFS
 Depth                [mm]:      150.00     1520.00
 Bulk Density Moist [g/cc]:        1.53        1.60
 Ave. AW Incl. Rock Frag  :        0.10        0.10
 Ksat. (est.)      [mm/hr]:      331.20      331.20
 Organic Carbon [weight %]:        0.44        0.15
 Clay           [weight %]:        3.50        4.00
 Silt           [weight %]:        0.60       16.60
 Sand           [weight %]:       95.90       79.40
 Rock Fragments   [vol. %]:        0.00        0.00
 Soil Albedo (Moist)      :        0.23        0.23
 Erosion K                :        0.17        0.28
 Salinity (EC, Form 5)    :        0.00        1.00
 Soil pH                  :        7.30        7.50
 Soil CACO3               :        0.00        0.00
                              
