 .Sol file Watershed HRU:70 Subbasin:6 HRU:2 Luse:WWHT Soil: 666983 Slope: 0-10 8/4/2017 12:00:00 AM ArcSWAT 2012.10_4.19
 Soil Name: Walla Walla
 Soil Hydrologic Group: B
 Maximum rooting depth(mm) : 1140.00
 Porosity fraction from which anions are excluded: 0.500
 Crack volume potential of soil: 0.500
 Texture 1                : SIL-SIL
 Depth                [mm]:      330.00     1140.00
 Bulk Density Moist [g/cc]:        1.20        1.33
 Ave. AW Incl. Rock Frag  :        0.19        0.19
 Ksat. (est.)      [mm/hr]:       33.03       33.03
 Organic Carbon [weight %]:        1.45        0.87
 Clay           [weight %]:       14.00       14.00
 Silt           [weight %]:       71.80       71.80
 Sand           [weight %]:       14.20       14.20
 Rock Fragments   [vol. %]:        0.00        0.00
 Soil Albedo (Moist)      :        0.00        0.00
 Erosion K                :        0.43        0.49
 Salinity (EC, Form 5)    :        0.00        0.00
 Soil pH                  :        7.20        7.20
 Soil CACO3               :        0.00        0.00
                              
