 .Wgn file Subbasin: 6 STATION NAME:352564 8/4/2017 12:00:00 AM ArcSWAT 2012.10_2.19
  LATITUDE =  45.75 LONGITUDE =-119.18
  ELEV [m] = 200.90
  RAIN_YRS =  51.00
  5.22  9.01 13.74 17.73 22.53 26.97 31.82 31.00 25.98 18.66 10.38  5.46
 -2.83 -1.08  1.24  3.93  7.70 11.25 14.06 13.55  9.21  4.05  0.70 -2.27
  6.01  5.08  3.92  3.94  4.79  4.79  4.34  4.24  4.32  4.35  4.78  5.71
  5.53  4.51  3.35  3.19  3.28  3.09  3.07  3.02  3.46  3.68  4.36  5.12
  30.7  20.7  21.6  20.5  23.6  16.3   5.4   8.9   9.7  17.8  31.4  31.8
  3.01  2.42  2.34  3.41  3.50  3.26  2.77  3.81  2.47  3.19  3.23  2.57
  2.00  2.38  2.46  3.20  1.87  2.79  2.36  3.00  2.17  2.25  3.29  1.96
  0.18  0.16  0.17  0.15  0.12  0.10  0.04  0.05  0.07  0.10  0.21  0.19
  0.49  0.46  0.43  0.40  0.47  0.44  0.35  0.44  0.41  0.43  0.47  0.55
  8.10  6.50  7.06  5.86  5.74  4.44  1.72  2.38  3.14  4.76  8.51  9.16
  3.37  3.72  5.05  3.57  4.19  4.08 12.79 15.68  4.87  3.30  3.76  4.98
  4.82  9.05 14.37 21.29 25.31 27.74 28.99 24.68 18.73 11.27  5.78  4.15
 -2.06 -1.38  0.60  2.14  3.89  5.22  5.41  5.03  3.90  2.32  0.44 -2.51
  3.11  3.19  3.68  3.88  3.89  3.86  3.73  3.64  3.43  3.29  3.29  3.10
