 .Sol file Watershed HRU:39 Subbasin:3 HRU:3 Luse:RNGB Soil: 667017 Slope: 20-9999 8/4/2017 12:00:00 AM ArcSWAT 2012.10_4.19
 Soil Name: Bakeoven
 Soil Hydrologic Group: D
 Maximum rooting depth(mm) :  360.00
 Porosity fraction from which anions are excluded: 0.500
 Crack volume potential of soil: 0.500
 Texture 1                : CBV-L-CBV-CL-UWB
 Depth                [mm]:      150.00      250.00      360.00
 Bulk Density Moist [g/cc]:        1.30        1.35        0.00
 Ave. AW Incl. Rock Frag  :        0.08        0.10        0.00
 Ksat. (est.)      [mm/hr]:       10.80       10.80       27.72
 Organic Carbon [weight %]:        1.16        0.73        0.00
 Clay           [weight %]:       20.00       28.00        0.00
 Silt           [weight %]:       37.90       37.60        0.00
 Sand           [weight %]:       42.10       34.40        0.00
 Rock Fragments   [vol. %]:       47.00       42.00        0.00
 Soil Albedo (Moist)      :        0.23        0.23        0.23
 Erosion K                :        0.37        0.32        0.00
 Salinity (EC, Form 5)    :        0.00        0.00        0.00
 Soil pH                  :        7.00        7.20        0.00
 Soil CACO3               :        0.00        0.00        0.00
                              
