 .Sol file Watershed HRU:137 Subbasin:10 HRU:3 Luse:WWHT Soil: 667023 Slope: 0-10 8/4/2017 12:00:00 AM ArcSWAT 2012.10_4.19
 Soil Name: Pilot Rock
 Soil Hydrologic Group: C
 Maximum rooting depth(mm) : 1520.00
 Porosity fraction from which anions are excluded: 0.500
 Crack volume potential of soil: 0.500
 Texture 1                : SIL-SIL-IND-GRV-S
 Depth                [mm]:      250.00      680.00     1140.00     1520.00
 Bulk Density Moist [g/cc]:        1.40        1.40        2.20        1.60
 Ave. AW Incl. Rock Frag  :        0.06        0.05        0.00        0.00
 Ksat. (est.)      [mm/hr]:       32.40       32.40     1800.00     1080.00
 Organic Carbon [weight %]:        1.16        0.17        0.03        0.00
 Clay           [weight %]:       14.00       14.00        5.00        2.50
 Silt           [weight %]:       71.80       71.80       25.00        1.50
 Sand           [weight %]:       14.20       14.20       70.00       96.00
 Rock Fragments   [vol. %]:        0.00        0.00        0.00       51.00
 Soil Albedo (Moist)      :        0.23        0.23        0.23        0.23
 Erosion K                :        0.43        0.49        0.00        0.24
 Salinity (EC, Form 5)    :        1.00        1.00        0.00        1.00
 Soil pH                  :        7.00        8.20        0.00        8.80
 Soil CACO3               :        0.00        0.00        0.00        0.00
                              
