 .Wgn file Subbasin: 13 STATION NAME:358550 8/4/2017 12:00:00 AM ArcSWAT 2012.10_2.19
  LATITUDE =  45.78 LONGITUDE =-118.12
  ELEV [m] =1531.00
  RAIN_YRS =  51.00
  3.66  7.18 11.59 15.69 20.35 24.98 30.18 29.78 24.68 17.10  8.46  3.92
 -3.75 -1.90  0.27  2.65  6.12  9.46 12.00 11.54  7.58  2.96 -0.17 -3.23
  5.48  4.83  4.60  5.17  5.38  5.32  4.78  4.82  5.20  5.28  4.76  5.25
  5.62  4.67  3.71  3.49  3.48  3.28  3.37  3.15  3.49  3.66  4.30  5.28
  83.0  60.2  68.7  56.8  50.4  36.5  12.9  20.3  26.8  46.5  85.5  84.1
  6.34  5.07  5.47  4.61  4.95  4.70  4.70  5.56  4.93  5.76  6.00  5.97
  2.44  2.42  3.23  2.28  2.48  2.79  4.65  2.27  1.79  2.33  2.90  2.35
  0.27  0.24  0.26  0.24  0.20  0.17  0.06  0.08  0.09  0.16  0.31  0.29
  0.63  0.63  0.60  0.61  0.56  0.50  0.37  0.46  0.54  0.55  0.64  0.62
 13.24 11.04 12.30 11.42  9.58  7.50  2.88  3.80  4.82  8.15 13.90 13.51
  1.07  2.27  2.44  3.36  3.80  3.35 13.23  9.34  5.30  3.30 14.42  9.93
  5.07  9.26 14.41 21.24 25.18 27.57 29.04 24.76 18.81 11.31  5.99  4.19
 -5.24 -5.23 -3.17 -1.05  2.33  4.46  4.71  3.88  1.31  0.01 -2.61 -5.03
  0.95  0.81  0.97  0.97  1.04  1.04  0.92  0.89  0.79  0.70  0.82  0.87
