 .Sol file Watershed HRU:149 Subbasin:10 HRU:15 Luse:RNGB Soil: 666981 Slope: 20-9999 8/4/2017 12:00:00 AM ArcSWAT 2012.10_4.19
 Soil Name: Tolo
 Soil Hydrologic Group: B
 Maximum rooting depth(mm) :  840.00
 Porosity fraction from which anions are excluded: 0.500
 Crack volume potential of soil: 0.500
 Texture 1                : SIL
 Depth                [mm]:      840.00
 Bulk Density Moist [g/cc]:        0.78
 Ave. AW Incl. Rock Frag  :        0.09
 Ksat. (est.)      [mm/hr]:       78.76
 Organic Carbon [weight %]:        2.03
 Clay           [weight %]:       10.00
 Silt           [weight %]:       68.80
 Sand           [weight %]:       21.20
 Rock Fragments   [vol. %]:        0.00
 Soil Albedo (Moist)      :        0.00
 Erosion K                :        0.43
 Salinity (EC, Form 5)    :        0.00
 Soil pH                  :        6.50
 Soil CACO3               :        0.00
                              
