 .Sol file Watershed HRU:138 Subbasin:10 HRU:4 Luse:WWHT Soil: 667028 Slope: 0-10 8/4/2017 12:00:00 AM ArcSWAT 2012.10_4.19
 Soil Name: Hermiston
 Soil Hydrologic Group: B
 Maximum rooting depth(mm) : 1520.00
 Porosity fraction from which anions are excluded: 0.500
 Crack volume potential of soil: 0.500
 Texture 1                : SIL-SIL
 Depth                [mm]:      610.00     1520.00
 Bulk Density Moist [g/cc]:        1.30        1.40
 Ave. AW Incl. Rock Frag  :        0.05        0.05
 Ksat. (est.)      [mm/hr]:       32.40       32.40
 Organic Carbon [weight %]:        1.16        0.32
 Clay           [weight %]:       14.00       14.00
 Silt           [weight %]:       71.80       71.80
 Sand           [weight %]:       14.20       14.20
 Rock Fragments   [vol. %]:        0.00        0.00
 Soil Albedo (Moist)      :        0.23        0.23
 Erosion K                :        0.37        0.49
 Salinity (EC, Form 5)    :        0.00        1.00
 Soil pH                  :        7.50        8.20
 Soil CACO3               :        0.00        0.00
                              
