 .Wgn file Subbasin: 11 STATION NAME:356540 8/4/2017 12:00:00 AM ArcSWAT 2012.10_2.19
  LATITUDE =  45.72 LONGITUDE =-118.63
  ELEV [m] = 453.20
  RAIN_YRS =  51.00
  4.90  8.47 12.57 16.46 21.00 25.91 31.65 30.88 25.66 18.41  9.97  5.20
 -3.62 -1.61  0.24  2.19  5.53  8.62 11.13 10.60  6.31  1.59 -0.28 -3.12
  6.65  5.45  4.50  4.62  5.07  5.36  4.85  4.87  5.14  5.21  5.35  6.30
  6.44  5.00  3.53  3.55  3.71  3.45  3.42  3.51  3.96  4.14  4.77  6.05
  48.9  35.2  43.7  38.5  38.1  25.4   8.1  14.6  17.5  30.4  56.8  51.4
  4.67  3.59  4.27  4.53  5.42  4.68  4.15  6.24  4.14  5.18  5.05  4.30
  2.06  2.07  2.22  1.97  2.32  1.80  2.04  3.66  1.89  2.55  2.63  2.16
  0.24  0.23  0.23  0.21  0.16  0.12  0.05  0.06  0.08  0.14  0.29  0.26
  0.49  0.48  0.45  0.40  0.43  0.38  0.25  0.36  0.37  0.41  0.47  0.50
 10.00  8.50  9.28  7.90  6.78  4.86  1.78  2.64  3.54  5.82 10.76 10.55
  2.97  3.96  4.56  3.96  4.27  4.28 14.12 14.67  5.00  3.20 17.56 11.69
  4.82  9.05 14.37 21.29 25.31 27.74 28.99 24.68 18.73 11.27  5.78  4.15
 -2.06 -1.38  0.60  2.14  3.89  5.22  5.41  5.03  3.90  2.32  0.44 -2.51
  3.11  3.19  3.68  3.88  3.89  3.86  3.73  3.64  3.43  3.29  3.29  3.10
