swat_path = C:\Users\sammy\Documents\Research\SWAT\QSWAT\Umatilla_Meghna_Test_v3
nlcdFile = C:\Users\sammy\Documents\Research\SWAT\QSWAT_Input_Data\Umatilla\Umatilla_Output_data_TEST_v2/nlcd_proj_mfv2_clp.tif
cdlFile = C:\Users\sammy\Documents\Research\SWAT\QSWAT_Input_Data\Umatilla\Umatilla_Output_data_TEST_v2\CDL_Clip\CDL_2017_clip_20180821151150_mfv2_clp.tif
soilFile = C:\Users\sammy\Documents\Research\SWAT\QSWAT_Input_Data\Umatilla\Umatilla_Output_data_TEST_v2\Soils_30m_clp.tif

subbasinsFile = C:\Users\sammy\Documents\Research\SWAT\Umatilla_Input_data\umatillaWBD_proj.shp
landuseFile = C:\Users\sammy\Documents\Research\SWAT\Umatilla_Output_data_TEST\HRUs_LU\UHRUs_Region_Latest.tif
