subbasinsFile = C:\Users\sammy\Documents\Research\SWAT\QSWAT_Input_Data\Umatilla\Umatilla_Input_data\umatillaWBD_proj.shp
demFile = C:\Users\sammy\Documents\Research\SWAT\QSWAT_Input_Data\Umatilla\Umatilla_Input_data\DEM_30m.tif
nlcdFile = C:\Users\sammy\Documents\Research\SWAT\QSWAT_Input_Data\Umatilla\Umatilla_Input_data\nlcd_proj_mfv2.tif
soilFile = C:\Users\sammy\Documents\Research\SWAT\QSWAT_Input_Data\Umatilla\Umatilla_Input_data\Soils_30m.tif
cdlPath = C:\Users\sammy\Documents\Research\SWAT\QSWAT_Input_Data\Umatilla\Umatilla_Input_data\CDL_Data\CDL_Data_Filter

output_path = C:\Users\sammy\Documents\Research\SWAT\QSWAT_Input_Data\Umatilla\Umatilla_Output_data_TEST