swat_path = C:\Users\sammy\Documents\Research\SWAT\QSWAT\Willow_Latest
nlcdFile = C:\Users\sammy\Documents\Research\SWAT\QSWAT_Input_Data\Willow\Willow_Output_Data_Test/nlcd_proj_mfv2_clp.tif
cdlFile = C:\Users\sammy\Documents\Research\SWAT\QSWAT_Input_Data\Willow\Willow_Output_Data_Test\CDL_Clip\CDL_2019_clip_20180821151150_mfv2_clp.tif
soilFile = C:\Users\sammy\Documents\Research\SWAT\QSWAT_Input_Data\Willow\Willow_Output_Data_Test\Soils_30m_clp.tif

subbasinsFile = C:\Users\sammy\Documents\Research\SWAT\QSWAT_Input_Data\Willow\Willow_Input_data\Willow_Proj.shp
landuseFile = C:\Users\sammy\Documents\Research\SWAT\Umatilla_Output_data_TEST\HRUs_LU\UHRUs_Willow_Region_Latest.tif
