1. Download Python 64 bits - https://www.python.org/downloads/release/python-2714/ - Windows x86-64 MSI installer
2. Setup as StandAlone version in C:\Python27\StandAlone
3. Add python path to environment
4  pip install --upgrade: numpy, setuptools
5. install pyqt5 - https://github.com/pyqt/python-qt5
6. pip install for python libraries: 
scipy, matplotlib, sip, pyopt, opemmdao, pyomo, pyutilib, pyodbc, pyqt, shutil, fnmatch, glob, timeit, mpi4py, pysal, statsmodel, gdal, pyshp, pyproj, cartopy, opencv
mysql
7. install spyder: pip install sypder (make sure you can call/open it from the cmd. Might need to C:\Python27\StandAlone\Scripts to path)
7. install GLPK - https://sourceforge.net/projects/winglpk/
8. install pyOptSparseDriver - https://github.com/mdolab/pyoptsparse (might need to install Fortran compiler - g77, gfortran and C compiler)

Other software needs:
ArcGSI/ArcCatalog, ArcSWAT, Matlab, R, QGIS, Notepad ++, MySQL, GitHub, Putty, WinSCP,  


4. install VS c++ python compiler
5. change setup.py to from setuptools import setup
6. run python setup.py install

7. [x for x in pyodbc.drivers() if x.startswith('Microsoft Access Driver')]
8. Install https://www.microsoft.com/en-US/download/details.aspx?id=13255


ENERGY -Code
pip install pyomo

glpk files - https://sourceforge.net/projects/winglpk/